data_cdl_v1-4c_Cu_1_Ch_1B_4H_Ch
_audit_creation_date              2020-02-03
_audit_creation_method            'tobacco_3.0'
_symmetry_space_group_name_H-M    'P1'
_symmetry_Int_Tables_number       1
_symmetry_cell_setting            triclinic
loop_
_symmetry_equiv_pos_as_xyz
  x,y,z
_cell_length_a                    22.369634696231323
_cell_length_b                    22.369634760447877
_cell_length_c                    44.739269638629516
_cell_angle_alpha                 89.99999999999987
_cell_angle_beta                  89.99999999848603
_cell_angle_gamma                 90.0
loop_
_atom_site_label
_atom_site_type_symbol
_atom_site_fract_x
_atom_site_fract_y
_atom_site_fract_z
O1         O    0.0497060820   -0.0867347197    0.1250000866
O2         O    0.0497040586    0.0867351567    0.1250007393
O3         O    0.0497019671    0.0000074705    0.1683687987
O4         O    0.0497081841   -0.0000007098    0.0816288669
O5         O   -0.0497019565   -0.0000011468    0.0816280411
O6         O   -0.0497080110    0.0000007140    0.1683648116
O7         O   -0.0497060820    0.0867347197    0.1249999134
O8         O   -0.0497040586   -0.0867351567    0.1249992607
Cu9       Cu    0.0587768379    0.0000049835    0.1250008685
Cu10      Cu   -0.0587768379   -0.0000049835    0.1249991315
C11        C   -0.0000000000   -0.1123125459    0.1250001153
C12        C    0.0000000000    0.1123125459    0.1249998847
C13        C   -0.0000000021   -0.0000002470    0.1811543166
C14        C    0.0000000021    0.0000002470    0.0688456834
O15        O    0.0497060893    0.5000002130    0.1683676336
O16        O    0.0497040644    0.5000015048    0.0816326957
O17        O    0.0497019752    0.5867376307    0.1249965353
O18        O    0.0497081890    0.4132577667    0.1250006321
O19        O   -0.0497019516    0.4132561169    0.1250008511
O20        O   -0.0497080028    0.5867296584    0.1249999139
O21        O   -0.0497060762    0.4999998550    0.0816329146
O22        O   -0.0497040513    0.4999985632    0.1683678526
Cu23      Cu    0.0587768444    0.5000017700    0.1249977821
Cu24      Cu   -0.0587768314    0.4999982980    0.1250027661
C25        C    0.0000000075    0.5000002733    0.1811565469
C26        C    0.0000000056    0.4999997946    0.0688440013
C27        C    0.0000000065    0.6123086674    0.1250003932
C28        C    0.0000000065    0.3876914005    0.1250001550
O29        O    0.5497061103    0.9132652579    0.1249999640
O30        O    0.5497040869    1.0867351343    0.1250006128
O31        O    0.5497019935    1.0000074519    0.1683686742
O32        O    0.5497082143    0.9999992639    0.0816287424
O33        O    0.4502980737    0.9999988269    0.0816279155
O34        O    0.4502920154    1.0000006954    0.1683646860
O35        O    0.4502939463    1.0867346973    0.1249997858
O36        O    0.4502959697    0.9132648209    0.1249991371
Cu37      Cu    0.5587768662    1.0000049611    0.1250007441
Cu38      Cu    0.4412231904    0.9999949940    0.1249990057
C39        C    0.5000000283    0.8876874317    0.1249999927
C40        C    0.5000000283    1.1123125235    0.1249997571
C41        C    0.5000000237    0.9999997356    0.1811541915
C42        C    0.5000000329    1.0000002195    0.0688455583
O43        O    0.5497061139    0.5000001837    0.1683674354
O44        O    0.5497040934    0.5000014718    0.0816324974
O45        O    0.5497020020    0.5867375996    0.1249963361
O46        O    0.5497082158    0.4132577356    0.1250004348
O47        O    0.4502980752    0.4132560857    0.1250006525
O48        O    0.4502920240    0.5867296272    0.1249997135
O49        O    0.4502939528    0.4999998220    0.0816327151
O50        O    0.4502959733    0.4999985339    0.1683676531
Cu51      Cu    0.5587768712    0.5000017388    0.1249975840
Cu52      Cu    0.4412231954    0.4999982669    0.1250025665
C53        C    0.5000000315    0.5000002446    0.1811563480
C54        C    0.5000000352    0.4999997611    0.0688438025
C55        C    0.5000000333    0.6123086363    0.1250001932
C56        C    0.5000000333    0.3876913694    0.1249999573
O57        O    0.0497060823   -0.0000001596    0.8316328495
O58        O    0.0497040608   -0.0000014473    0.9183677875
O59        O    0.0497019700   -0.0867375753    0.8750039489
O60        O    0.0497081837    0.0867422887    0.8749998499
O61        O   -0.0497019569    0.0867439386    0.8749996320
O62        O   -0.0497080081   -0.0867296029    0.8750005712
O63        O   -0.0497060798    0.0000002025    0.9183675695
O64        O   -0.0497040583    0.0000014903    0.8316326315
Cu65      Cu    0.0587768392   -0.0000017145    0.8750027009
Cu66      Cu   -0.0587768366    0.0000017575    0.8749977181
C67        C    0.0000000000   -0.0000002205    0.8188439367
C68        C    0.0000000025    0.0000002635    0.9311564823
C69        C    0.0000000013   -0.1123086120    0.8750000917
C70        C    0.0000000013    0.1123086549    0.8750003273
O71        O    0.0497060958    0.5867347696    0.8750003034
O72        O    0.0497040724    0.4132648932    0.8749996554
O73        O    0.0497019852    0.4999925747    0.8316315936
O74        O    0.0497081936    0.5000007644    0.9183715254
O75        O   -0.0497019470    0.5000012014    0.9183723488
O76        O   -0.0497079929    0.4999993312    0.8316355782
O77        O   -0.0497060682    0.4132653302    0.8750004788
O78        O   -0.0497040448    0.5867352066    0.8750011267
Cu79      Cu    0.0587768517    0.4999950664    0.8749995240
Cu80      Cu   -0.0587768241    0.5000050334    0.8750012582
C81        C    0.0000000138    0.6123125958    0.8750002727
C82        C    0.0000000138    0.3876875040    0.8750005095
C83        C    0.0000000173    0.5000002908    0.8188460745
C84        C    0.0000000104    0.4999998091    0.9311547077
O85        O    0.4502939536    0.9132652565    0.8750001037
O86        O    0.4502959770    1.0867351329    0.8749994558
O87        O    0.4502980642    1.0000074514    0.8316313939
O88        O    0.4502918558    0.9999992617    0.9183713257
O89        O    0.5497019964    0.9999988247    0.9183721491
O90        O    0.5497080423    1.0000006949    0.8316353786
O91        O    0.5497061176    1.0867346959    0.8750002792
O92        O    0.5497040942    0.9132648195    0.8750009271
Cu93      Cu    0.4412231977    1.0000049597    0.8749993243
Cu94      Cu    0.5587768735    0.9999949926    0.8750010585
C95        C    0.5000000356    0.8876874303    0.8750000731
C96        C    0.5000000356    1.1123125220    0.8750003098
C97        C    0.5000000321    0.9999997353    0.8188458749
C98        C    0.5000000390    1.0000002170    0.9311545080
O99        O    0.5497061272    0.5867347214    0.8750002385
O100       O    0.5497041038    0.4132648450    0.8749995897
O101       O    0.5497020149    0.4999925274    0.8316315283
O102       O    0.5497082267    0.5000007153    0.9183714600
O103       O    0.4502980861    0.5000011523    0.9183722844
O104       O    0.4502920368    0.4999992839    0.8316355139
O105       O    0.4502939632    0.4132652820    0.8750004140
O106       O    0.4502959866    0.5867351584    0.8750010629
Cu107     Cu    0.5587768831    0.4999950182    0.8749994586
Cu108     Cu    0.4412232073    0.5000049852    0.8750011939
C109       C    0.5000000452    0.6123125476    0.8750002085
C110       C    0.5000000452    0.3876874558    0.8750004440
C111       C    0.5000000464    0.5000002437    0.8188460097
C112       C    0.5000000440    0.4999997597    0.9311546428
O113       O    0.9132652627    0.9502937939    0.3749991825
O114       O    1.0867351396    0.9502958173    0.3749998293
O115       O    1.0000074590    0.9502979023    0.4183678917
O116       O    0.9999992671    0.9502916984    0.3316279599
O117       O    0.9999988301    1.0497018388    0.3316271378
O118       O    1.0000007025    1.0497078800    0.4183639084
O119       O    1.0867347026    1.0497059577    0.3749990072
O120       O    0.9132648257    1.0497039342    0.3749983604
Cu121     Cu    1.0000049662    0.9412230380    0.3749999612
Cu122     Cu    0.9999949992    1.0587767135    0.3749982286
C123       C    0.8876874365    0.9999998758    0.3749992139
C124       C    1.1123125289    0.9999998758    0.3749989758
C125       C    0.9999997433    0.9999998693    0.4311534114
C126       C    1.0000002221    0.9999998822    0.3188447783
O127       O   -0.0000001575    0.4502939748    0.3316331590
O128       O   -0.0000014475    0.4502960046    0.4183680970
O129       O   -0.0867375746    0.4502980913    0.3750042578
O130       O    0.0867422899    0.4502918775    0.3750001600
O131       O    0.0867439397    0.5497020179    0.3749999397
O132       O   -0.0867296023    0.5497080691    0.3750008778
O133       O    0.0000002023    0.5497061449    0.4183678767
O134       O    0.0000014923    0.5497041152    0.3316329387
Cu135     Cu   -0.0000017136    0.4412232221    0.3750030107
Cu136     Cu    0.0000017584    0.5587768976    0.3749980250
C137       C   -0.0000002181    0.5000000558    0.3188442450
C138       C    0.0000002629    0.5000000640    0.4311567906
C139       C   -0.1123086114    0.5000000599    0.3750003993
C140       C    0.1123086562    0.5000000599    0.3750006364
O141       O    0.4999998150    1.0497059984    0.4183668098
O142       O    0.4999985250    1.0497039813    0.3316318718
O143       O    0.4132623979    1.0497018882    0.3749957110
O144       O    0.5867422624    1.0497081020    0.3749998087
O145       O    0.5867439123    0.9502979617    0.3750000254
O146       O    0.4132703703    0.9502919105    0.3749990874
O147       O    0.5000001748    0.9502938410    0.3316320885
O148       O    0.5000014648    0.9502958581    0.4183670264
Cu149     Cu    0.4999982589    1.0587767574    0.3749969584
Cu150     Cu    0.5000017309    0.9412230820    0.3750019398
C151       C    0.4999997544    0.9999999156    0.4311557219
C152       C    0.5000002354    0.9999999238    0.3188431763
C153       C    0.3876913611    0.9999999197    0.3749995676
C154       C    0.6123086287    0.9999999197    0.3749993306
O155       O    0.5000002076    0.4502939775    0.4183678374
O156       O    0.5000014993    0.4502959910    0.3316328994
O157       O    0.5867376255    0.4502980858    0.3749967390
O158       O    0.4132577610    0.4502918721    0.3750008359
O159       O    0.4132561111    0.5497020124    0.3750010516
O160       O    0.5867296531    0.5497080636    0.3750001144
O161       O    0.4999998494    0.5497061313    0.3316331150
O162       O    0.4999985577    0.5497041178    0.4183680530
Cu163     Cu    0.5000017645    0.4412232167    0.3749979861
Cu164     Cu    0.4999982925    0.5587768921    0.3750029663
C165       C    0.5000002679    0.5000000608    0.4311567490
C166       C    0.4999997891    0.5000000480    0.3188442034
C167       C    0.6123086623    0.5000000544    0.3750005953
C168       C    0.3876913947    0.5000000544    0.3750003571
O169       O    0.9999998096    0.9502938481    0.5816324855
O170       O    0.9999985185    0.9502958968    0.6683674235
O171       O    0.9132623919    0.9502979741    0.6250035841
O172       O    1.0867422565    0.9502917603    0.6249994868
O173       O    1.0867439063    1.0497019006    0.6249992611
O174       O    0.9132703643    1.0497079519    0.6250001986
O175       O    1.0000001683    1.0497060371    0.6683671978
O176       O    1.0000014594    1.0497039884    0.5816322598
Cu177     Cu    0.9999982530    0.9412231049    0.6250023377
Cu178     Cu    1.0000017249    1.0587767804    0.6249973456
C179       C    0.9999997491    0.9999999263    0.5688435689
C180       C    1.0000002288    0.9999999590    0.6811561144
C181       C    0.8876913552    0.9999999426    0.6249997228
C182       C    1.1123086227    0.9999999426    0.6249999605
O183       O    0.0867347574    0.4502939887    0.6250005411
O184       O   -0.0867351195    0.4502960121    0.6249998944
O185       O   -0.0000074390    0.4502981029    0.5816318319
O186       O    0.0000007532    0.4502918874    0.6683717637
O187       O    0.0000011902    0.5497020277    0.6683725891
O188       O   -0.0000006825    0.5497080807    0.5816358186
O189       O   -0.0867346825    0.5497061525    0.6250007198
O190       O    0.0867351944    0.5497041290    0.6250013665
Cu191     Cu   -0.0000049461    0.4412232328    0.6249997621
Cu192     Cu    0.0000050210    0.5587769083    0.6250014987
C193       C    0.1123125836    0.5000000706    0.6250005113
C194       C   -0.1123125088    0.5000000706    0.6250007496
C195       C    0.0000002767    0.5000000717    0.5688463138
C196       C   -0.0000002018    0.5000000695    0.6811549470
O197       O    0.4999998171    0.9502938542    0.5816325593
O198       O    0.4999985279    0.9502958874    0.6683674973
O199       O    0.4132624004    0.9502979724    0.6250036583
O200       O    0.5867422649    0.9502917586    0.6249995601
O201       O    0.5867439148    1.0497018990    0.6249993388
O202       O    0.4132703728    1.0497079502    0.6250002773
O203       O    0.5000001778    1.0497060277    0.6683672760
O204       O    0.5000014669    1.0497039945    0.5816323380
Cu205     Cu    0.4999982615    0.9412231032    0.6250024111
Cu206     Cu    0.5000017334    1.0587767787    0.6249974242
C207       C    0.4999997564    0.9999999346    0.5688436448
C208       C    0.5000002385    0.9999999473    0.6811561904
C209       C    0.3876913637    0.9999999409    0.6249997994
C210       C    0.6123086312    0.9999999409    0.6250000359
O211       O    0.4132653245    0.5497061421    0.6250005450
O212       O    0.5867352014    0.5497041186    0.6249998979
O213       O    0.5000075205    0.5497020333    0.5816318357
O214       O    0.4999993291    0.5497082379    0.6683717675
O215       O    0.4999988920    0.4502980976    0.6683725898
O216       O    0.5000007640    0.4502920555    0.5816358192
O217       O    0.5867347644    0.4502939783    0.6250007202
O218       O    0.4132648875    0.4502960017    0.6250013673
Cu219     Cu    0.5000050279    0.5587768979    0.6249997662
Cu220     Cu    0.4999950609    0.4412232224    0.6250014991
C221       C    0.3876874982    0.5000000602    0.6250005137
C222       C    0.6123125906    0.5000000602    0.6250007515
C223       C    0.4999998047    0.5000000661    0.5688463160
C224       C    0.5000002841    0.5000000543    0.6811549492
C535       C   -0.2155786992    0.4404685775    0.6233742514
C536       C   -0.1811558272    0.5000000680    0.6250007501
C537       C   -0.2155770871    0.5595315559    0.6266272492
C538       C   -0.2844212189    0.5595315533    0.6266272497
C539       C   -0.3188440910    0.5000000628    0.6250007511
C540       C   -0.2844228311    0.4404685749    0.6233742519
H541       H   -0.1900980263    0.3963998137    0.6221702195
H542       H   -0.1900984889    0.6035984376    0.6278312293
H543       H   -0.3099018918    0.6036003171    0.6278312816
H544       H   -0.3099014293    0.3964016932    0.6221702719
C525       C    0.2155787857    0.5457337794    0.6058758702
C526       C    0.1811559090    0.5000000680    0.6250005119
C527       C    0.2155771643    0.4542663540    0.6441251541
C528       C    0.2844212962    0.4542663514    0.6441251547
C529       C    0.3188441728    0.5000000628    0.6250005131
C530       C    0.2844229176    0.5457337768    0.6058758708
H531       H    0.1900981162    0.5795886066    0.5917186675
H532       H    0.1900985627    0.4204129760    0.6582817511
H533       H    0.3099019657    0.4204115241    0.6582823574
H534       H    0.3099015192    0.5795871548    0.5917192738
C515       C    0.7844211155    0.9967811641    0.5952331657
C516       C    0.8188441251    0.9999999422    0.6249998011
C517       C    0.7844230028    1.0032187199    0.6547665147
C518       C    0.7155788709    1.0032187194    0.6547665930
C519       C    0.6811558613    0.9999999414    0.6249999576
C520       C    0.7155769836    0.9967811637    0.5952332439
H521       H    0.8099016865    0.9943984326    0.5731980659
H522       H    0.8099017028    1.0056013498    0.6768006145
H523       H    0.6900982998    1.0056014509    0.6768016928
H524       H    0.6900982836    0.9943985337    0.5731991442
C505       C    1.2155788053    1.0002233929    0.6548098408
C506       C    1.1811558613    0.9999999422    0.6249999202
C507       C    1.2155770492    0.9997764911    0.5951899594
C508       C    1.2844211811    0.9997764907    0.5951899191
C509       C    1.3188441251    0.9999999414    0.6249998397
C510       C    1.2844229372    1.0002233925    0.6548098005
H511       H    1.1900981857    1.0003888047    0.6768769546
H512       H    1.1900983977    0.9996110866    0.5731238188
H513       H    1.3099018007    0.9996110788    0.5731228053
H514       H    1.3099015887    1.0003887969    0.6768759411
C495       C    0.5416065995    0.5427022750    0.4827909384
C496       C    0.5000001521    0.5000000622    0.4655794668
C497       C    0.4583935889    0.4572978506    0.4827900609
C498       C    0.4583934731    0.4572978519    0.5172121267
C499       C    0.4999999205    0.5000000648    0.5344235983
C500       C    0.5416064837    0.5427022764    0.5172130041
H501       H    0.5724062632    0.5743130031    0.4700506284
H502       H    0.4275953276    0.4256884730    0.4700507355
H503       H    0.4275938094    0.4256871239    0.5299524366
H504       H    0.5724047450    0.5743116540    0.5299523296
C485       C    0.4406673540    1.0058519656    0.4827890547
C486       C    0.4999997549    0.9999999203    0.4655776176
C487       C    0.5593321562    0.9941478798    0.4827882463
C488       C    0.5593321567    0.9941478846    0.5172103121
C489       C    0.4999997559    0.9999999298    0.5344217491
C490       C    0.4406673545    1.0058519704    0.5172111204
H491       H    0.3967459661    1.0101839956    0.4700487191
H492       H    0.6032516661    0.9898160315    0.4700489465
H493       H    0.6032535447    0.9898158546    0.5299506476
H494       H    0.3967478446    1.0101838187    0.5299504203
C475       C   -0.0439169341    0.5403220158    0.4827909240
C476       C    0.0000002664    0.5000000659    0.4655794865
C477       C    0.0439174703    0.4596781179    0.4827901147
C478       C    0.0439174737    0.4596781199    0.5172121804
C479       C    0.0000002733    0.5000000698    0.5344236180
C480       C   -0.0439169307    0.5403220177    0.5172129898
H481       H   -0.0764270721    0.5701707306    0.4700505889
H482       H    0.0764262158    0.4298306778    0.4700508145
H483       H    0.0764276117    0.4298294051    0.5299525156
H484       H   -0.0764256762    0.5701694578    0.5299522900
C465       C    0.2155788879    0.4935139679    0.4046337513
C466       C    0.1811558936    0.5000000585    0.3750005666
C467       C    0.2155770312    0.5064861478    0.3453673120
C468       C    0.2844211630    0.5064861464    0.3453672422
C469       C    0.3188441573    0.5000000558    0.3750004269
C470       C    0.2844230197    0.4935139665    0.4046336815
H471       H    0.1900983055    0.4887125771    0.4265700566
H472       H    0.1900983425    0.5112873343    0.3234319962
H473       H    0.3099017454    0.5112875372    0.3234309369
H474       H    0.3099017084    0.4887127800    0.4265689973
C455       C   -0.2155786330    0.4904065735    0.4044221708
C456       C   -0.1811558427    0.5000000585    0.3750004483
C457       C   -0.2155771843    0.5095935421    0.3455787748
C458       C   -0.2844213161    0.5095935408    0.3455788238
C459       C   -0.3188441064    0.5000000558    0.3750005463
C460       C   -0.2844227648    0.4904065721    0.4044222198
H461       H   -0.1900978996    0.4833049038    0.4262018511
H462       H   -0.1900986466    0.5166949092    0.3237999893
H463       H   -0.3099020495    0.5166952105    0.3237991435
H464       H   -0.3099013025    0.4833052050    0.4262010053
C445       C    0.7155768255    1.0209770626    0.4029033142
C446       C    0.6811539007    0.9999999087    0.3749993014
C447       C    0.7155751077    0.9790227438    0.3470952595
C448       C    0.7844192396    0.9790227328    0.3470952303
C449       C    0.8188421645    0.9999998868    0.3749992431
C450       C    0.7844209574    1.0209770516    0.4029032850
H451       H    0.6900961918    1.0365056133    0.4235595530
H452       H    0.6900964704    0.9634948652    0.3264399253
H453       H    0.8098998734    0.9634941822    0.3264389915
H454       H    0.8098995947    1.0365049303    0.4235586192
C435       C    1.2155804317    1.0070581084    0.4045997120
C436       C    1.1811578131    0.9999998868    0.3749991237
C437       C    1.2155793264    0.9929416761    0.3453986835
C438       C    1.2844234583    0.9929416871    0.3453988315
C439       C    1.3188460769    0.9999999087    0.3749994197
C440       C    1.2844245636    1.0070581193    0.4045998599
H441       H    1.1900995713    1.0122830175    0.4265117262
H442       H    1.1901009158    0.9877169822    0.3234874965
H443       H    1.3099043187    0.9877167779    0.3234868172
H444       H    1.3099029742    1.0122828133    0.4265110469
C425       C    0.9470842295    1.0274685709    0.4827878591
C426       C    0.9999997447    0.9999998836    0.4655764244
C427       C    1.0529152614    0.9725312105    0.4827870554
C428       C    1.0529152629    0.9725312247    0.5172091212
C429       C    0.9999997477    0.9999999120    0.5344205559
C430       C    0.9470842310    1.0274685851    0.5172099249
H431       H    0.9079130029    1.0478025237    0.4700475219
H432       H    1.0920848123    0.9521981165    0.4700477572
H433       H    1.0920864895    0.9521972719    0.5299494584
H434       H    0.9079146800    1.0478016791    0.5299492230
C415       C    0.5000109899    0.4403798260    0.7327898712
C416       C    0.5000002247    0.5000001016    0.7155784137
C417       C    0.4999894001    0.5596204246    0.7327890219
C418       C    0.4999893407    0.5596204720    0.7672110877
C419       C    0.5000001059    0.5000001963    0.7844225452
C420       C    0.5000109304    0.4403798734    0.7672119370
H421       H    0.5000190029    0.3962453012    0.7200495508
H422       H    0.4999814315    0.6037530275    0.7200497069
H423       H    0.4999813277    0.6037549968    0.7799514080
H424       H    0.5000188991    0.3962472705    0.7799512520
C405       C    0.4919559518    1.2155786741    0.9045379330
C406       C    0.5000000380    1.1811558573    0.8750003434
C407       C    0.5080441266    1.2155771721    0.8454627873
C408       C    0.5080441290    1.2844213038    0.8454628208
C409       C    0.5000000428    1.3188441206    0.8750004105
C410       C    0.4919559542    1.2844228057    0.9045379666
H411       H    0.4860012369    1.1900979604    0.9264033966
H412       H    0.5139985851    1.1900986148    0.8235982336
H413       H    0.5139988439    1.3099020174    0.8235973572
H414       H    0.4860014956    1.3099013631    0.9264025202
C395       C    0.4417939912    0.7844212571    0.8814545062
C396       C    0.5000000380    0.8188441206    0.8750001069
C397       C    0.5582060871    0.7844228524    0.8685457415
C398       C    0.5582060895    0.7155787207    0.8685457754
C399       C    0.5000000428    0.6811558573    0.8750001746
C400       C    0.4417939936    0.7155771255    0.8814545400
H401       H    0.3987063964    0.8099019362    0.8862324130
H402       H    0.6012918381    0.8099014443    0.8637680139
H403       H    0.6012936844    0.6900980416    0.8637678685
H404       H    0.3987082427    0.6900985336    0.8862322677
C385       C    0.5325113450    1.0499758068    0.7672116928
C386       C    0.5000000837    0.9999997883    0.7844230984
C387       C    0.4674888740    0.9500238228    0.7672124382
C388       C    0.4674889256    0.9500238758    0.7327903725
C389       C    0.5000001869    0.9999998943    0.7155789669
C390       C    0.5325113966    1.0499758598    0.7327896270
H391       H    0.5565780847    1.0869710020    0.7799520516
H392       H    0.4434231250    0.9130301699    0.7799517148
H393       H    0.4434221859    0.9130286806    0.7200500137
H394       H    0.5565771456    1.0869695127    0.7200503505
C375       C   -0.0075564499    0.5591397145    0.7672111187
C376       C   -0.0000000375    0.5000002354    0.7844225765
C377       C    0.0075563201    0.4408607011    0.7672119685
C378       C    0.0075562654    0.4408606458    0.7327899028
C379       C   -0.0000001470    0.5000001248    0.7155784450
C380       C   -0.0075565047    0.5591396591    0.7327890530
H381       H   -0.0131501172    0.6029183308    0.7799514389
H382       H    0.0131497889    0.3970839973    0.7799512837
H383       H    0.0131499327    0.3970820295    0.7200495826
H384       H   -0.0131499734    0.6029163629    0.7200497378
C365       C    0.0595410419   -0.2155767518    0.8734635017
C366       C    0.0000000044   -0.1811538764    0.8750001370
C367       C   -0.0595410299   -0.2155751326    0.8765368175
C368       C   -0.0595410268   -0.2844192643    0.8765368627
C369       C    0.0000000107   -0.3188421398    0.8750002275
C370       C    0.0595410450   -0.2844208835    0.8734635470
H371       H    0.1036168725   -0.1900960817    0.8723259590
H372       H   -0.1036149785   -0.1900965319    0.8776742780
H373       H   -0.1036168574   -0.3098999345    0.8776744054
H374       H    0.1036149936   -0.3098994843    0.8723260864
C355       C   -0.0592119168    0.2844193305    0.8784835453
C356       C    0.0000000107    0.3188422112    0.8750004639
C357       C    0.0592119350    0.2844209601    0.8715173370
C358       C    0.0592119319    0.2155768284    0.8715172914
C359       C    0.0000000044    0.1811539478    0.8750003728
C360       C   -0.0592119199    0.2155751988    0.8784834998
H361       H   -0.1030441205    0.3098999969    0.8810619639
H362       H    0.1030422671    0.3098995647    0.8689390623
H363       H    0.1030441356    0.1900961621    0.8689388728
H364       H   -0.1030422520    0.1900965943    0.8810617745
C345       C    0.0561288870   -0.0201033346    0.7672106711
C346       C    0.0000000572   -0.0000001757    0.7844220913
C347       C   -0.0561287154    0.0201030282    0.7672114458
C348       C   -0.0561286582    0.0201030730    0.7327893801
C349       C    0.0000001716   -0.0000000859    0.7155779598
C350       C    0.0561289442   -0.0201032897    0.7327886053
H351       H    0.0976787576   -0.0349849270    0.7799510190
H352       H   -0.0976768520    0.0349839512    0.7799507333
H353       H   -0.0976785288    0.0349846655    0.7200490321
H354       H    0.0976770808   -0.0349842127    0.7200493179
C335       C    0.4553659203    0.4604728620    0.0172098508
C336       C    0.5000000374    0.4999997607    0.0344212884
C337       C    0.5446341567    0.5395266591    0.0172106603
C338       C    0.5446341589    0.5395266587   -0.0172114055
C339       C    0.5000000418    0.4999997600   -0.0344228431
C340       C    0.4553659225    0.4604728617   -0.0172122150
H341       H    0.4223250787    0.4312126905    0.0299501859
H342       H    0.5776735841    0.5687855800    0.0299499606
H343       H    0.5776750004    0.5687868303   -0.0299517406
H344       H    0.4223264951    0.4312139408   -0.0299515153
C325       C    0.4656446128    0.5487268747    0.2327896493
C326       C    0.4999999709    0.5000001954    0.2155782100
C327       C    0.5343552683    0.4512734670    0.2327888364
C328       C    0.5343552077    0.4512734179    0.2672109022
C329       C    0.4999998497    0.5000000971    0.2844223415
C330       C    0.4656445522    0.5487268255    0.2672117150
H331       H    0.4402127692    0.5847973100    0.2200493154
H332       H    0.5597860695    0.4152046102    0.2200495349
H333       H    0.5597870513    0.4152029825    0.2799512360
H334       H    0.4402137511    0.5847956824    0.2799510165
C315       C    0.5595194071    0.9965325690    0.0172106626
C316       C    0.5000000344    1.0000002189    0.0344220989
C317       C    0.4404806633    1.0034678682    0.0172114695
C318       C    0.4404806648    1.0034678676   -0.0172105962
C319       C    0.5000000375    1.0000002176   -0.0344220326
C320       C    0.5595194086    0.9965325683   -0.0172114032
H321       H    0.6035792013    0.9939656078    0.0299509987
H322       H    0.3964227516    1.0060347201    0.0299507688
H323       H    0.3964208706    1.0060348288   -0.0299509323
H324       H    0.6035773203    0.9939657164   -0.0299507025
C305       C    0.5592861261    0.7844192835    0.1218481220
C306       C    0.5000000296    0.8188421657    0.1250000428
C307       C    0.4407139342    0.7844209162    0.1281520138
C308       C    0.4407139355    0.7155767845    0.1281520639
C309       C    0.5000000321    0.6811539023    0.1250001431
C310       C    0.5592861274    0.7155751518    0.1218481721
H311       H    0.6031732357    0.8098999486    0.1195148449
H312       H    0.3968287000    0.8098995219    0.1304851541
H313       H    0.3968268260    0.6900961193    0.1304853410
H314       H    0.6031713616    0.6900965460    0.1195150318
C295       C    0.5595717281    1.2155806843    0.1262032683
C296       C    0.5000000296    1.1811578147    0.1249998072
C297       C    0.4404283323    1.2155790769    0.1237963960
C298       C    0.4404283335    1.2844232086    0.1237964461
C299       C    0.5000000321    1.3188460781    0.1249999073
C300       C    0.5595717293    1.2844248160    0.1262033184
H301       H    0.6036702572    1.1901000097    0.1270941052
H302       H    0.3963316875    1.1901004805    0.1229055603
H303       H    0.3963298044    1.3099038831    0.1229056093
H304       H    0.6036683741    1.3099034123    0.1270941542
C285       C    0.5407902100    1.0434825314    0.2327880246
C286       C    0.5000000767    0.9999997827    0.2155766182
C287       C    0.4592099962    0.9565170809    0.2327872774
C288       C    0.4592100492    0.9565171280    0.2672093432
C289       C    0.5000001825    0.9999998768    0.2844207497
C290       C    0.5407902629    1.0434825785    0.2672100904
H291       H    0.5709854643    1.0756710249    0.2200476665
H292       H    0.4290159936    0.9243299288    0.2200480002
H293       H    0.4290147948    0.9243286345    0.2799497013
H294       H    0.5709842656    1.0756697307    0.2799493676
C275       C    0.0400881698    0.5441305088    0.0172099847
C276       C    0.0000000068    0.4999997983    0.0344214202
C277       C   -0.0400881550    0.4558690914    0.0172107900
C278       C   -0.0400881538    0.4558690950   -0.0172112757
C279       C    0.0000000092    0.4999998055   -0.0344227113
C280       C    0.0400881709    0.5441305124   -0.0172120810
H281       H    0.0697638220    0.5767986944    0.0299503214
H282       H   -0.0697625394    0.4232022997    0.0299500887
H283       H   -0.0697638060    0.4232009094   -0.0299516124
H284       H    0.0697625554    0.5767973040   -0.0299513797
C265       C    0.0587477380    0.4898377886    0.2327897873
C266       C   -0.0000000489    0.5000002189    0.2155783302
C267       C   -0.0587478923    0.5101625949    0.2327889389
C268       C   -0.0587479487    0.5101625405    0.2672110047
C269       C   -0.0000001617    0.5000001102    0.2844224617
C270       C    0.0587476816    0.4898377342    0.2672118530
H271       H    0.1022364013    0.4823149907    0.2200494666
H272       H   -0.1022346546    0.5176851114    0.2200496242
H273       H   -0.1022366119    0.5176853384    0.2799513254
H274       H    0.1022344439    0.4823152177    0.2799511677
C255       C   -0.0587757330   -0.0099994051    0.0172117113
C256       C    0.0000000022    0.0000002511    0.0344231486
C257       C    0.0587757375    0.0099999115    0.0172125202
C258       C    0.0587757376    0.0099999156   -0.0172095455
C259       C    0.0000000024    0.0000002594   -0.0344209829
C260       C   -0.0587757329   -0.0099994010   -0.0172103545
H261       H   -0.1022850436   -0.0174017511    0.0299520466
H262       H    0.1022831879    0.0174019379    0.0299518203
H263       H    0.1022850482    0.0174022616   -0.0299498808
H264       H   -0.1022831833   -0.0174014274   -0.0299496546
C245       C    0.0596008261    0.2155807112    0.1257618990
C246       C    0.0000000016    0.1811578415    0.1249999523
C247       C   -0.0596008212    0.2155791035    0.1242380731
C248       C   -0.0596008196    0.2844232352    0.1242381407
C249       C    0.0000000049    0.3188461049    0.1250000874
C250       C    0.0596008277    0.2844248429    0.1257619666
H251       H    0.1037209157    0.1901000368    0.1263258874
H252       H   -0.1037190258    0.1901005070    0.1236740588
H253       H   -0.1037209092    0.3099039096    0.1236741523
H254       H    0.1037190324    0.3099034394    0.1263259809
C235       C   -0.0595376660   -0.2155806767    0.1265691575
C236       C    0.0000000016   -0.1811578075    0.1250001848
C237       C    0.0595376709   -0.2155790700    0.1234312816
C238       C    0.0595376725   -0.2844232017    0.1234313511
C239       C    0.0000000049   -0.3188460709    0.1250003237
C240       C   -0.0595376643   -0.2844248084    0.1265692269
H241       H   -0.1036110055   -0.1901000019    0.1277305533
H242       H    0.1036091250   -0.1901004739    0.1222698839
H243       H    0.1036110121   -0.3099038765    0.1222699552
H244       H   -0.1036091185   -0.3099034045    0.1277306246
C225       C   -0.0032882677   -0.0595297455    0.2327889340
C226       C    0.0000000540   -0.0000002147    0.2155774817
C227       C    0.0032884316    0.0595293484    0.2327880951
C228       C    0.0032884876    0.0595293807    0.2672101609
C229       C    0.0000001660   -0.0000001501    0.2844216132
C230       C   -0.0032882116   -0.0595297132    0.2672109997
H231       H   -0.0057225212   -0.1035970844    0.2200486098
H232       H    0.0057225396    0.1035947795    0.2200487839
H233       H    0.0057227412    0.1035967197    0.2799504851
H234       H   -0.0057223196   -0.1035951443    0.2799503109
loop_
_geom_bond_atom_site_label_1
_geom_bond_atom_site_label_2
_geom_bond_distance
_geom_bond_site_symmetry_2
_ccdc_geom_bond_type
C510       H514 1.140       .   S
C507       H512 1.140       .   S
C508       H513 1.140       .   S
C505       H511 1.140       .   S
O29         C39 1.250       .   A
O29        Cu37 1.951       .   S
O22        Cu24 1.951       .   S
O22         C25 1.250       .   A
O20        Cu24 1.951       .   S
O20         C27 1.251       .   A
O21        Cu24 1.951       .   S
O21         C26 1.250       .   A
C249       C250 1.540       .   A
C28        C249 1.540       .   S
C248       C249 1.540       .   A
C247       C248 1.540       .   A
C248       H253 1.140       .   S
O48        Cu52 1.951       .   S
O49        Cu52 1.951       .   S
O50        Cu52 1.951       .   S
Cu51       Cu52 2.630       .   S
O47        Cu52 1.951       .   S
O43        Cu51 1.951       .   S
O44        Cu51 1.951       .   S
O45        Cu51 1.951       .   S
O46        Cu51 1.951       .   S
C239       C240 1.540       .   A
C240       H244 1.140       .   S
C235       C240 1.540       .   A
C246       C247 1.540       .   A
C247       H252 1.140       .   S
C246        C12 1.540       .   S
C245       C246 1.540       .   A
C245       C250 1.540       .   A
C245       H251 1.140       .   S
O144      Cu149 1.951       .   S
Cu149     Cu150 2.630       .   S
O141      Cu149 1.951       .   S
O142      Cu149 1.951       .   S
O143      Cu149 1.951       .   S
C376       C377 1.540       .   A
C375       C376 1.540       .   A
C376        C83 1.540       .   S
C325       C330 1.540       .   A
C325       H331 1.140       .   S
C325       C326 1.540       .   A
C457       H462 1.140       .   S
C489       C207 1.540       .   S
C488       C489 1.540       .   A
C489       C490 1.540       .   A
C455       H461 1.140       .   S
C460       H464 1.140       .   S
C488       H493 1.140       .   S
C487       C488 1.540       .   A
C338       H343 1.140       .   S
C337       H342 1.140       .   S
C335       H341 1.140       .   S
C340       H344 1.140       .   S
O59         C69 1.250       .   A
O59        Cu65 1.951       .   S
O58         C68 1.250       .   A
O58        Cu65 1.951       .   S
O50         C53 1.250       .   A
O57         C67 1.250       .   A
O57        Cu65 1.951       .   S
C475       H481 1.140       .   S
O188       C195 1.251       .   A
O185       C195 1.250       .   A
C479       C195 1.540       .   S
O162      Cu164 1.951       .   S
O162       C165 1.250       .   A
O160       C167 1.251       .   A
O160      Cu164 1.951       .   S
O161       C166 1.250       .   A
O161      Cu164 1.951       .   S
O19        Cu24 1.951       .   S
O19         C28 1.250       .   A
C228       H233 1.140       .   S
C193       C526 1.540       .   S
O183       C193 1.250       .   A
O190       C193 1.250       .   A
O169       C179 1.250       .   A
O169      Cu177 1.951       .   S
C485       H491 1.140       .   S
C485       C490 1.540       .   A
C485       C486 1.540       .   A
O30         C40 1.250       .   A
C40        C296 1.540       .   S
O35         C40 1.250       .   A
O31         C41 1.250       .   A
C41        C286 1.540       .   S
O34         C41 1.251       .   A
O33         C42 1.250       .   A
O32         C42 1.250       .   A
C42        C316 1.540       .   S
C318       C319 1.540       .   A
C318       H323 1.140       .   S
C317       C318 1.540       .   A
O75        Cu80 1.951       .   S
O77        Cu80 1.951       .   S
O76        Cu80 1.951       .   S
Cu79       Cu80 2.630       .   S
O78        Cu80 1.951       .   S
C225       H231 1.140       .   S
O211      Cu219 1.951       .   S
O212      Cu219 1.951       .   S
O213      Cu219 1.951       .   S
O214      Cu219 1.951       .   S
Cu219     Cu220 2.630       .   S
C285       H291 1.140       .   S
C288       H293 1.140       .   S
C287       H292 1.140       .   S
C290       H294 1.140       .   S
C348       H353 1.140       .   S
C348       C349 1.540       .   A
C347       C348 1.540       .   A
C180       C349 1.540   1_665   S
C349       C350 1.540       .   A
C339       C340 1.540       .   A
C335       C340 1.540       .   A
C67        C346 1.540       .   S
C346       C347 1.540       .   A
C345       C346 1.540       .   A
C347       H352 1.140       .   S
C345       H351 1.140       .   S
C345       C350 1.540       .   A
C487       H492 1.140       .   S
C490       H494 1.140       .   S
C81        C369 1.540   1_565   S
C368       C369 1.540       .   A
C369       C370 1.540       .   A
C526       C527 1.540       .   A
C525       C526 1.540       .   A
C527       H532 1.140       .   S
C527       C528 1.540       .   A
C525       C530 1.540       .   A
C525       H531 1.140       .   S
C519       C520 1.540       .   A
C515       C520 1.540       .   A
C520       H524 1.140       .   S
C287       C288 1.540       .   A
C288       C289 1.540       .   A
C286       C287 1.540       .   A
C285       C286 1.540       .   A
C285       C290 1.540       .   A
C528       H533 1.140       .   S
C528       C529 1.540       .   A
C529       C530 1.540       .   A
C221       C529 1.540       .   S
C449       C123 1.540       .   S
C449       C450 1.540       .   A
C448       C449 1.540       .   A
C448       H453 1.140       .   S
C447       C448 1.540       .   A
C445       C450 1.540       .   A
C445       C446 1.540       .   A
C445       H451 1.140       .   S
C446       C447 1.540       .   A
C447       H452 1.140       .   S
O7         Cu10 1.951       .   S
O6         Cu10 1.951       .   S
O5         Cu10 1.951       .   S
Cu9        Cu10 2.630       .   S
O8         Cu10 1.951       .   S
C440       H444 1.140       .   S
C439       C440 1.540       .   A
C435       C440 1.540       .   A
O101       C111 1.250       .   A
O104       C111 1.251       .   A
C111       C419 1.540       .   S
O100       C110 1.250       .   A
C110       C409 1.540   1_545   S
O105       C110 1.250       .   A
O103      Cu108 1.951       .   S
O104      Cu108 1.951       .   S
O105      Cu108 1.951       .   S
O106      Cu108 1.951       .   S
Cu107     Cu108 2.630       .   S
O88        Cu93 1.951       .   S
O88         C98 1.250       .   A
O89         C98 1.250       .   A
O89        Cu94 1.951       .   S
O85        Cu93 1.951       .   S
O85         C95 1.250       .   A
O86        Cu93 1.951       .   S
O86         C96 1.250       .   A
O87        Cu93 1.951       .   S
O87         C97 1.250       .   A
O100      Cu107 1.951       .   S
O101      Cu107 1.951       .   S
O102      Cu107 1.951       .   S
O99       Cu107 1.951       .   S
C420       H424 1.140       .   S
C417       H422 1.140       .   S
C418       H423 1.140       .   S
C478       H483 1.140       .   S
C415       H421 1.140       .   S
C380       H384 1.140       .   S
C378       H383 1.140       .   S
C377       H382 1.140       .   S
C375       H381 1.140       .   S
O17        Cu23 1.951       .   S
O17         C27 1.250       .   A
O16         C26 1.250       .   A
O16        Cu23 1.951       .   S
O15        Cu23 1.951       .   S
O15         C25 1.250       .   A
C540       H544 1.140       .   S
C535       H541 1.140       .   S
C538       H543 1.140       .   S
O18         C28 1.250       .   A
O18        Cu23 1.951       .   S
C225       C230 1.540       .   A
C229       C230 1.540       .   A
C230       H234 1.140       .   S
C236        C11 1.540       .   S
C236       C237 1.540       .   A
C235       C236 1.540       .   A
C237       H242 1.140       .   S
C237       C238 1.540       .   A
C235       H241 1.140       .   S
C238       H243 1.140       .   S
C238       C239 1.540       .   A
C27        C239 1.540   1_565   S
O127       C137 1.250       .   A
O127      Cu135 1.951       .   S
O120      Cu122 1.951       .   S
O120       C123 1.250       .   A
O128      Cu135 1.951       .   S
O128       C138 1.250       .   A
O129       C139 1.250       .   A
O129      Cu135 1.951       .   S
O175      Cu178 1.951       .   S
O174      Cu178 1.951       .   S
Cu177     Cu178 2.630       .   S
O176      Cu178 1.951       .   S
O173      Cu178 1.951       .   S
O171      Cu177 1.951       .   S
O170      Cu177 1.951       .   S
O172      Cu177 1.951       .   S
C229       C126 1.540   1_445   S
C228       C229 1.540       .   A
C327       H332 1.140       .   S
C328       H333 1.140       .   S
C330       H334 1.140       .   S
C518       C519 1.540       .   A
C519       C210 1.540       .   S
O190      Cu192 1.951       .   S
O197       C207 1.250       .   A
O197      Cu205 1.951       .   S
O199       C209 1.250       .   A
O199      Cu205 1.951       .   S
O198      Cu205 1.951       .   S
O198       C208 1.250       .   A
C109       C399 1.540       .   S
O106       C109 1.250       .   A
O99        C109 1.250       .   A
C250       H254 1.140       .   S
C497       C498 1.540       .   A
C498       H503 1.140       .   S
C498       C499 1.540       .   A
C499       C500 1.540       .   A
C223       C499 1.540       .   S
C496       C497 1.540       .   A
C495       C496 1.540       .   A
C165       C496 1.540       .   S
C497       H502 1.140       .   S
C495       C500 1.540       .   A
C495       H501 1.140       .   S
C509       C510 1.540       .   A
C505       C510 1.540       .   A
C307       C308 1.540       .   A
C308       H313 1.140       .   S
C308       C309 1.540       .   A
C309       C310 1.540       .   A
C55        C309 1.540       .   S
C306       C307 1.540       .   A
C305       C306 1.540       .   A
C39        C306 1.540       .   S
C307       H312 1.140       .   S
C305       C310 1.540       .   A
C305       H311 1.140       .   S
C295       C300 1.540       .   A
C300       H304 1.140       .   S
C299       C300 1.540       .   A
O36         C39 1.250       .   A
O218      Cu220 1.951       .   S
O215      Cu220 1.951       .   S
O216      Cu220 1.951       .   S
O217      Cu220 1.951       .   S
C153       C439 1.540   1_455   S
O146       C153 1.251       .   A
O143       C153 1.250       .   A
O147       C152 1.250       .   A
C152       C289 1.540       .   S
O142       C152 1.250       .   A
O148       C151 1.250       .   A
O141       C151 1.250       .   A
C151       C486 1.540       .   S
C405       H411 1.140       .   S
C405       C410 1.540       .   A
C405       C406 1.540       .   A
C407       C408 1.540       .   A
C407       H412 1.140       .   S
C406       C407 1.540       .   A
O144       C154 1.250       .   A
O145       C154 1.250       .   A
C154       C446 1.540       .   S
C408       C409 1.540       .   A
C409       C410 1.540       .   A
C408       H413 1.140       .   S
C390       H394 1.140       .   S
C385       C390 1.540       .   A
C389       C390 1.540       .   A
C395       C400 1.540       .   A
C395       H401 1.140       .   S
C395       C396 1.540       .   A
C397       C398 1.540       .   A
C397       H402 1.140       .   S
C396       C397 1.540       .   A
C95        C396 1.540       .   S
C398       C399 1.540       .   A
C399       C400 1.540       .   A
C398       H403 1.140       .   S
C458       H463 1.140       .   S
C500       H504 1.140       .   S
C276       C277 1.540       .   A
C275       C276 1.540       .   A
C26        C276 1.540       .   S
C277       H282 1.140       .   S
C277       C278 1.540       .   A
C275       H281 1.140       .   S
C275       C280 1.540       .   A
C269       C270 1.540       .   A
C270       H274 1.140       .   S
C265       C270 1.540       .   A
C278       H283 1.140       .   S
C278       C279 1.540       .   A
C84        C279 1.540   1_556   S
C279       C280 1.540       .   A
C475       C480 1.540       .   A
C475       C476 1.540       .   A
C476       C477 1.540       .   A
C476       C138 1.540       .   S
C477       C478 1.540       .   A
C477       H482 1.140       .   S
O62        Cu66 1.951       .   S
O63        Cu66 1.951       .   S
O61        Cu66 1.951       .   S
O64        Cu66 1.951       .   S
Cu65       Cu66 2.630       .   S
O60        Cu65 1.951       .   S
C478       C479 1.540       .   A
C479       C480 1.540       .   A
O130      Cu135 1.951       .   S
Cu135     Cu136 2.630       .   S
O131      Cu136 1.951       .   S
O133      Cu136 1.951       .   S
O132      Cu136 1.951       .   S
O134      Cu136 1.951       .   S
C370       H374 1.140       .   S
C367       H372 1.140       .   S
C368       H373 1.140       .   S
C365       H371 1.140       .   S
C470       H474 1.140       .   S
C465       H471 1.140       .   S
C468       H473 1.140       .   S
C467       H472 1.140       .   S
O48         C55 1.251       .   A
O49         C54 1.250       .   A
O43         C53 1.250       .   A
O44         C54 1.250       .   A
O45         C55 1.250       .   A
O46         C56 1.250       .   A
O47         C56 1.250       .   A
O175       C180 1.250       .   A
O174       C181 1.251       .   A
O176       C179 1.250       .   A
O171       C181 1.250       .   A
O170       C180 1.250       .   A
O173       C182 1.250       .   A
O172       C182 1.250       .   A
C366       C367 1.540       .   A
C367       C368 1.540       .   A
O119       C124 1.250       .   A
C436       C124 1.540       .   S
O114       C124 1.250       .   A
O118       C125 1.251       .   A
C125       C426 1.540       .   S
O115       C125 1.250       .   A
O60         C70 1.250       .   A
O61         C70 1.250       .   A
C70        C359 1.540       .   S
C255       H261 1.140       .   S
Cu93       Cu94 2.630       .   S
O92        Cu94 1.951       .   S
O91        Cu94 1.951       .   S
O90        Cu94 1.951       .   S
C355       H361 1.140       .   S
C355       C356 1.540       .   A
C355       C360 1.540       .   A
C356       C357 1.540       .   A
C357       C358 1.540       .   A
C357       H362 1.140       .   S
C82        C356 1.540       .   S
C350       H354 1.140       .   S
C260       H264 1.140       .   S
C359       C360 1.540       .   A
C358       C359 1.540       .   A
C358       H363 1.140       .   S
C257       H262 1.140       .   S
C258       H263 1.140       .   S
C530       H534 1.140       .   S
Cu23       Cu24 2.630       .   S
C535       C540 1.540       .   A
C535       C536 1.540       .   A
C537       C538 1.540       .   A
C537       H542 1.140       .   S
C536       C537 1.540       .   A
C194       C536 1.540       .   S
C538       C539 1.540       .   A
C539       C540 1.540       .   A
C222       C539 1.540   1_655   S
C438       C439 1.540       .   A
C438       H443 1.140       .   S
C437       C438 1.540       .   A
O30        Cu37 1.951       .   S
C429       C430 1.540       .   A
C430       H434 1.140       .   S
C425       C430 1.540       .   A
O113       C123 1.250       .   A
O117       C126 1.250       .   A
O116       C126 1.250       .   A
C435       C436 1.540       .   A
C435       H441 1.140       .   S
C436       C437 1.540       .   A
C437       H442 1.140       .   S
C425       H431 1.140       .   S
C428       H433 1.140       .   S
C427       H432 1.140       .   S
O36        Cu38 1.951       .   S
C258       C259 1.540       .   A
C257       C258 1.540       .   A
C97        C386 1.540       .   S
O90         C97 1.251       .   A
O91         C96 1.250       .   A
C96        C406 1.540       .   S
O92         C95 1.250       .   A
C259       C260 1.540       .   A
C68        C259 1.540   1_556   S
O211       C221 1.250       .   A
O212       C222 1.250       .   A
O213       C223 1.250       .   A
O214       C224 1.250       .   A
O215       C224 1.250       .   A
O216       C223 1.251       .   A
O217       C222 1.250       .   A
O218       C221 1.250       .   A
C224       C416 1.540       .   S
C227       H232 1.140       .   S
C226       C227 1.540       .   A
C227       C228 1.540       .   A
C225       C226 1.540       .   A
C226        C13 1.540       .   S
O131       C140 1.250       .   A
O130       C140 1.250       .   A
O133       C138 1.250       .   A
O132       C139 1.251       .   A
O134       C137 1.250       .   A
Cu163     Cu164 2.630       .   S
O159      Cu164 1.951       .   S
O157      Cu163 1.951       .   S
O156      Cu163 1.951       .   S
O155      Cu163 1.951       .   S
O158      Cu163 1.951       .   S
C320       H324 1.140       .   S
C315       H321 1.140       .   S
C317       H322 1.140       .   S
O145      Cu150 1.951       .   S
O146      Cu150 1.951       .   S
O147      Cu150 1.951       .   S
C480       H484 1.140       .   S
O148      Cu150 1.951       .   S
C486       C487 1.540       .   A
C319       C320 1.540       .   A
C319        C98 1.540   1_554   S
C466       C467 1.540       .   A
C467       C468 1.540       .   A
C508       C509 1.540       .   A
C509       C209 1.540   1_655   S
C310       H314 1.140       .   S
C315       C320 1.540       .   A
C315       C316 1.540       .   A
C316       C317 1.540       .   A
C25        C266 1.540       .   S
C168       C469 1.540       .   S
O159       C168 1.250       .   A
O158       C168 1.250       .   A
O156       C166 1.250       .   A
C329       C166 1.540       .   S
O157       C167 1.250       .   A
C459       C167 1.540   1_455   S
O155       C165 1.250       .   A
C469       C470 1.540       .   A
C468       C469 1.540       .   A
C365       C366 1.540       .   A
C365       C370 1.540       .   A
C69        C366 1.540       .   S
C507       C508 1.540       .   A
C506       C507 1.540       .   A
C360       H364 1.140       .   S
C181       C516 1.540       .   S
C506       C182 1.540       .   S
C255       C260 1.540       .   A
C265       H271 1.140       .   S
C265       C266 1.540       .   A
C267       C268 1.540       .   A
C267       H272 1.140       .   S
C266       C267 1.540       .   A
C268       C269 1.540       .   A
C137       C269 1.540       .   S
C268       H273 1.140       .   S
C140       C466 1.540       .   S
C465       C466 1.540       .   A
C465       C470 1.540       .   A
O74        Cu79 1.951       .   S
O71        Cu79 1.951       .   S
O73        Cu79 1.951       .   S
O72        Cu79 1.951       .   S
C459       C460 1.540       .   A
C455       C460 1.540       .   A
C505       C506 1.540       .   A
O119      Cu122 1.951       .   S
O118      Cu122 1.951       .   S
O117      Cu122 1.951       .   S
Cu121     Cu122 2.630       .   S
O113      Cu121 1.951       .   S
O116      Cu121 1.951       .   S
O115      Cu121 1.951       .   S
O114      Cu121 1.951       .   S
C400       H404 1.140       .   S
O201       C210 1.250       .   A
O200       C210 1.250       .   A
O78         C81 1.250       .   A
O75         C84 1.250       .   A
O74         C84 1.250       .   A
O77         C82 1.250       .   A
O76         C83 1.251       .   A
O71         C81 1.250       .   A
O73         C83 1.250       .   A
O72         C82 1.250       .   A
O188      Cu192 1.951       .   S
O189      Cu192 1.951       .   S
Cu191     Cu192 2.630       .   S
O187      Cu192 1.951       .   S
O183      Cu191 1.951       .   S
O184      Cu191 1.951       .   S
O185      Cu191 1.951       .   S
O186      Cu191 1.951       .   S
O102       C112 1.250       .   A
O103       C112 1.250       .   A
O63         C68 1.250       .   A
O62         C69 1.251       .   A
O64         C67 1.250       .   A
O31        Cu37 1.951       .   S
C53        C326 1.540       .   S
C326       C327 1.540       .   A
C327       C328 1.540       .   A
C328       C329 1.540       .   A
C329       C330 1.540       .   A
O6          C13 1.251       .   A
O3          C13 1.250       .   A
O7          C12 1.250       .   A
O2          C12 1.250       .   A
O1          C11 1.250       .   A
O8          C11 1.250       .   A
O5          C14 1.250       .   A
O4          C14 1.250       .   A
C14        C256 1.540       .   S
O33        Cu38 1.951       .   S
O32        Cu37 1.951       .   S
Cu37       Cu38 2.630       .   S
O35        Cu38 1.951       .   S
O34        Cu38 1.951       .   S
C456       C139 1.540       .   S
C179       C429 1.540       .   S
C428       C429 1.540       .   A
C427       C428 1.540       .   A
C415       C420 1.540       .   A
C419       C420 1.540       .   A
C426       C427 1.540       .   A
C425       C426 1.540       .   A
C518       H523 1.140       .   S
C517       H522 1.140       .   S
C515       H521 1.140       .   S
O203      Cu206 1.951       .   S
O203       C208 1.250       .   A
O202      Cu206 1.951       .   S
O202       C209 1.251       .   A
O201      Cu206 1.951       .   S
O200      Cu205 1.951       .   S
O204       C207 1.250       .   A
O204      Cu206 1.951       .   S
C255       C256 1.540       .   A
C256       C257 1.540       .   A
O4          Cu9 1.951       .   S
O3          Cu9 1.951       .   S
O2          Cu9 1.951       .   S
O1          Cu9 1.951       .   S
C450       H454 1.140       .   S
C56        C299 1.540   1_545   S
C54        C336 1.540       .   S
Cu205     Cu206 2.630       .   S
C280       H284 1.140       .   S
C379       C196 1.540       .   S
C379       C380 1.540       .   A
C378       C379 1.540       .   A
C377       C378 1.540       .   A
C375       C380 1.540       .   A
O186       C196 1.250       .   A
O187       C196 1.250       .   A
O189       C194 1.250       .   A
O184       C194 1.250       .   A
C297       C298 1.540       .   A
C298       H303 1.140       .   S
C298       C299 1.540       .   A
C295       C296 1.540       .   A
C295       H301 1.140       .   S
C296       C297 1.540       .   A
C297       H302 1.140       .   S
C289       C290 1.540       .   A
C517       C518 1.540       .   A
C456       C457 1.540       .   A
C455       C456 1.540       .   A
C457       C458 1.540       .   A
C458       C459 1.540       .   A
C516       C517 1.540       .   A
C515       C516 1.540       .   A
C385       H391 1.140       .   S
C387       H392 1.140       .   S
C388       H393 1.140       .   S
C410       H414 1.140       .   S
C208       C389 1.540       .   S
C416       C417 1.540       .   A
C415       C416 1.540       .   A
C339       C112 1.540   1_554   S
C337       C338 1.540       .   A
C336       C337 1.540       .   A
C335       C336 1.540       .   A
C338       C339 1.540       .   A
C417       C418 1.540       .   A
C418       C419 1.540       .   A
C386       C387 1.540       .   A
C385       C386 1.540       .   A
C387       C388 1.540       .   A
C388       C389 1.540       .   A
