data_crr_v1-4c_Cu_1_Ch_1B_4H_Ch
_audit_creation_date              2020-02-03
_audit_creation_method            'tobacco_3.0'
_symmetry_space_group_name_H-M    'P1'
_symmetry_Int_Tables_number       1
_symmetry_cell_setting            triclinic
loop_
_symmetry_equiv_pos_as_xyz
  x,y,z
_cell_length_a                    28.837423821991745
_cell_length_b                    28.838883298660917
_cell_length_c                    28.824655943027476
_cell_angle_alpha                 90.00050671356482
_cell_angle_beta                  89.99874367875643
_cell_angle_gamma                 89.99781619398273
loop_
_atom_site_label
_atom_site_type_symbol
_atom_site_fract_x
_atom_site_fract_y
_atom_site_fract_z
O1         O    0.1280962823    0.3847476412    0.4519033175
O2         O    0.1841039631    0.3976432024    0.3301764406
O3         O    0.1278626501    0.4519100603    0.3844696717
O4         O    0.1843417012    0.3304768326    0.3976061308
O5         O    0.1221414559    0.2980859890    0.3655263726
O6         O    0.0656625245    0.4195143742    0.3523948789
O7         O    0.1219037177    0.3652523588    0.2980966825
O8         O    0.0658960369    0.3523567976    0.4198235594
Cu9       Cu    0.1617775437    0.3941521629    0.3939639749
Cu10      Cu    0.0882224563    0.3558478371    0.3560360251
C11        C    0.0887368268    0.3666511341    0.4538111934
C12        C    0.1612631732    0.3833488659    0.2961888066
C13        C    0.0884369159    0.4536152089    0.3665008128
C14        C    0.1615630841    0.2963847911    0.3834991872
O15        O    0.3677188226    0.0491695674    0.4199227566
O16        O    0.3806740332    0.1049965924    0.2981217333
O17        O    0.4348369806    0.0486836577    0.3524408924
O18        O    0.3135519254    0.1054866003    0.3655996331
O19        O    0.3461287982    0.1676376895    0.3975825212
O20        O    0.4674089081    0.1108346820    0.3844286448
O21        O    0.4132509060    0.1671476816    0.3301046213
O22        O    0.4002956955    0.1113206566    0.4519056446
Cu23      Cu    0.3712244787    0.0714126943    0.3561002404
Cu24      Cu    0.4097452500    0.1449045547    0.3939271375
C25        C    0.3820982339    0.0720140531    0.4538737323
C26        C    0.3988714947    0.1443031959    0.2961536456
C27        C    0.4690015174    0.0713808311    0.3664974870
C28        C    0.3119682112    0.1449364179    0.3835298909
O29        O    0.4116095072    0.3287950582    0.1654104280
O30        O    0.3986905774    0.4503145492    0.1090662341
O31        O    0.3443621313    0.3961175900    0.1653376572
O32        O    0.4659419152    0.3829959728    0.1091349097
O33        O    0.4337230442    0.3507492578    0.0469107134
O34        O    0.3121482144    0.3638660228    0.1031135667
O35        O    0.3664717063    0.4180678343    0.0468420378
O36        O    0.3793906362    0.2965483432    0.1031862317
Cu37      Cu    0.4080893214    0.3925008762    0.1429153714
Cu38      Cu    0.3699918922    0.3543620163    0.0693370944
C39        C    0.3974037503    0.2947536764    0.1426056390
C40        C    0.3806774633    0.4521092161    0.0696468268
C41        C    0.3103331344    0.3819236345    0.1425154872
C42        C    0.4677480791    0.3649392579    0.0697369785
O43        O    0.0454807104    0.3841827191    0.6892687179
O44        O   -0.0108720984    0.3969480490    0.8108505064
O45        O    0.0453964714    0.4513363519    0.7567126643
O46        O   -0.0107919674    0.3297904567    0.7434105045
O47        O    0.0513923252    0.2975216697    0.7756481605
O48        O    0.1075806675    0.4190627227    0.7889453539
O49        O    0.0513121942    0.3646792620    0.8430881624
O50        O    0.1076650031    0.3519139321    0.7215063739
Cu51      Cu    0.0116283301    0.3935109837    0.7471211040
Cu52      Cu    0.0851645745    0.3553509974    0.7852357763
C53        C    0.0848830756    0.3661664448    0.6874611869
C54        C    0.0119098290    0.3826955363    0.8448956935
C55        C    0.0847714094    0.4531191381    0.7747848981
C56        C    0.0120214952    0.2957428429    0.7575719823
O57        O    0.7915115786    0.1048203276    0.8430394215
O58        O    0.8042796953    0.0484775808    0.7214550837
O59        O    0.8586652379    0.1047488764    0.7755912225
O60        O    0.7371220767    0.0485449238    0.7888993385
O61        O    0.7048409470    0.1107227674    0.7566656470
O62        O    0.8263792661    0.1669266225    0.7433624977
O63        O    0.7719985656    0.1106554243    0.6892213923
O64        O    0.7592304489    0.1669981711    0.8108057301
Cu65      Cu    0.8008423630    0.0709735672    0.7851853989
Cu66      Cu    0.7626677812    0.1445021848    0.7470754149
C67        C    0.7734887219    0.1442179846    0.8448493108
C68        C    0.7900214223    0.0712577674    0.6874115030
C69        C    0.8604414502    0.1441228764    0.7575200929
C70        C    0.7030686941    0.0713528755    0.7747407208
O71        O    0.7377133995    0.3511060222    0.0941575357
O72        O    0.8593398495    0.3640462769    0.0380347637
O73        O    0.8049954637    0.4183888031    0.0941550056
O74        O    0.7920617515    0.2967595330    0.0380332097
O75        O    0.7599133634    0.3289048367   -0.0242806345
O76        O    0.7728422261    0.4505291501    0.0318412621
O77        O    0.8271914614    0.3961915805   -0.0242790805
O78        O    0.7055650114    0.3832513258    0.0318436915
Cu79      Cu    0.8014637261    0.3546435847    0.0717813766
Cu80      Cu    0.7634411348    0.3926540180   -0.0019029214
C81        C    0.7037054104    0.3652718505    0.0712752732
C82        C    0.8611994505    0.3820257522   -0.0013968180
C83        C    0.7908229641    0.4523883126    0.0712760715
C84        C    0.7740818969    0.2949092900   -0.0013976162
O85        O    0.3668873380    0.0924128375    0.7229687328
O86        O    0.3799988693    0.0360757702    0.8445175605
O87        O    0.4342526498    0.0923031745    0.7902023455
O88        O    0.3126296011    0.0361813412    0.7772879119
O89        O    0.3447692145   -0.0260217775    0.7449591266
O90        O    0.4663873006    0.0301001643    0.7578687145
O91        O    0.4121384828   -0.0261273485    0.8121887752
O92        O    0.3990269514    0.0302097189    0.6906399475
Cu93      Cu    0.3705110627    0.0699194205    0.7866967084
Cu94      Cu    0.4085147581   -0.0036339315    0.7484607996
C95        C    0.3810250669    0.0696175364    0.6888819879
C96        C    0.3980007539   -0.0033320473    0.8462755202
C97        C    0.4682483889    0.0694796150    0.7759368167
C98        C    0.3107774319   -0.0031941259    0.7592206914
O99        O    0.1822208890    0.7440273521    0.8121527956
O100       O    0.1259011315    0.7571486939    0.6905963134
O101       O    0.1821284685    0.8113918983    0.7449209283
O102       O    0.1259894599    0.6897801921    0.7578242159
O103       O    0.0637814452    0.7219232214    0.7901450095
O104       O    0.1199205610    0.8435299651    0.7772465675
O105       O    0.0636931168    0.7892917233    0.7229171070
O106       O    0.1200128743    0.7761703815    0.8444735892
Cu107     Cu    0.1597365743    0.7476556706    0.7484217219
Cu108     Cu    0.0861774315    0.7856634049    0.7866481807
C109       C    0.1594205876    0.7581653424    0.8462366733
C110       C    0.0864934182    0.7751537330    0.6888332292
C111       C    0.1593049921    0.8453876728    0.7591841049
C112       C    0.0866090137    0.6879314027    0.7758857976
O113       O    0.4350340183    0.7882884115    0.0931633284
O114       O    0.3133042016    0.7754660779    0.0372432276
O115       O    0.3677450522    0.7210125326    0.0931584634
O116       O    0.3805891945    0.8427459277    0.0372440234
O117       O    0.4126206760    0.8107147468   -0.0251907587
O118       O    0.3997813839    0.6889863077    0.0307237825
O119       O    0.3453356831    0.7434348970   -0.0251915544
O120       O    0.4670654998    0.7562572306    0.0307285463
Cu121     Cu    0.3712426743    0.7847993979    0.0708995458
Cu122     Cu    0.4091270271    0.7469239105   -0.0029277718
C123       C    0.4689987942    0.7741622583    0.0701907108
C124       C    0.3113709072    0.7575610501   -0.0022189368
C125       C    0.3818723115    0.6870547253    0.0701884897
C126       C    0.3984973898    0.8446685831   -0.0022167158
O127       O   -0.0109522877    0.7429174447    0.3301189234
O128       O    0.0448728994    0.7558864811    0.4519196430
O129       O   -0.0114403701    0.8100404565    0.3975916850
O130       O    0.0453650801    0.6887595200    0.3844508463
O131       O    0.1075208006    0.7213303837    0.3524651628
O132       O    0.0507152857    0.8426063745    0.3656011378
O133       O    0.1070286200    0.7884573447    0.4199339595
O134       O    0.0512034329    0.7754883083    0.2981332398
Cu135     Cu    0.0112894976    0.7464305624    0.3939415427
Cu136     Cu    0.0847868347    0.7849442270    0.3561113401
C137       C    0.0118947847    0.7572918127    0.2961665945
C138       C    0.0841815476    0.7740829767    0.4538862883
C139       C    0.0112587492    0.8442013813    0.3835310539
C140       C    0.0848175831    0.6871734082    0.3665218289
O141       O    0.7908335664    0.0342061277    0.2980605689
O142       O    0.8037373541    0.0902229699    0.4197802149
O143       O    0.8580015580    0.0339752702    0.3654911813
O144       O    0.7365654120    0.0904579338    0.3523535579
O145       O    0.7041699463    0.0282663141    0.3844421688
O146       O    0.8256012494   -0.0282162301    0.3975748270
O147       O    0.7713418884    0.0280313501    0.4518688258
O148       O    0.7584381007   -0.0279854921    0.3301491798
Cu149     Cu    0.8002426234    0.0678911829    0.3559954880
Cu150     Cu    0.7619328315   -0.0056537051    0.3939339067
C151       C    0.7727335353   -0.0051503657    0.2961581856
C152       C    0.7894419196    0.0673878435    0.4537712090
C153       C    0.8597048256   -0.0054466846    0.3834646381
C154       C    0.7024706293    0.0676841623    0.3664647566
O155       O    0.7380498766    0.7895926444    0.0468059902
O156       O    0.8595804796    0.7766920633    0.1031421076
O157       O    0.8053829530    0.7223558194    0.0468802022
O158       O    0.7922513586    0.8439328507    0.1030719901
O159       O    0.7600103973    0.8117174965    0.1653018383
O160       O    0.7731371386    0.6901454186    0.1091099445
O161       O    0.8273395182    0.7444767091    0.1653719558
O162       O    0.7058089153    0.7573772902    0.1090358383
Cu163     Cu    0.8017607258    0.7860813125    0.0692964927
Cu164     Cu    0.7636286690    0.7479880409    0.1428814533
C165       C    0.7040097333    0.7753859404    0.0696147960
C166       C    0.8613796616    0.7586834130    0.1425631500
C167       C    0.7911933443    0.6883289856    0.0697068138
C168       C    0.7741960506    0.8457403678    0.1424711322
C399       C    0.7366011134   -0.0410723710    0.2186761670
C400       C    0.7730999845   -0.0425113258    0.2576502109
C401       C    0.8099636640   -0.0811439537    0.2582887028
C402       C    0.8103284724   -0.1183376269    0.2199531508
C403       C    0.7738296013   -0.1168986722    0.1809791069
C404       C    0.7369659218   -0.0782660442    0.1803406150
H405       H    0.7093124156   -0.0124741918    0.2182035171
H406       H    0.8369811652   -0.0822102856    0.2871371718
H407       H    0.8376171702   -0.1469358061    0.2204258007
H408       H    0.7099484206   -0.0771997123    0.1514921460
C389       C   -0.0781244252    0.8677530432    0.3823392111
C390       C   -0.0266064558    0.8817662735    0.3835144602
C391       C   -0.0130002431    0.9333905786    0.3846730951
C392       C   -0.0509120000    0.9710016535    0.3846564810
C393       C   -0.1024299695    0.9569884232    0.3834812319
C394       C   -0.1160361821    0.9053641181    0.3823225969
H395       H   -0.0881965567    0.8295376485    0.3814815203
H396       H    0.0251336054    0.9437647556    0.3855430470
H397       H   -0.0408398686    1.0092170482    0.3855141718
H398       H   -0.1541700306    0.8949899411    0.3814526450
C379       C   -0.0492590767    0.7639165131    0.1681776486
C380       C   -0.1007465784    0.7583332479    0.1812140169
C381       C   -0.1148502786    0.7524043477    0.2324012405
C382       C   -0.0774664771    0.7520587126    0.2705520958
C383       C   -0.0259789753    0.7576419777    0.2575157276
C384       C   -0.0118752751    0.7635708780    0.2063285040
H385       H   -0.0388186752    0.7683054392    0.1302858078
H386       H   -0.1529615908    0.7482714471    0.2420523338
H387       H   -0.0879068785    0.7476697864    0.3084439366
H388       H    0.0262360371    0.7677037786    0.1966774106
C369       C    0.5600123345    0.7539982122    0.1113740953
C370       C    0.5331017001    0.7744960367    0.0700336210
C371       C    0.5595936293    0.7952719239    0.0285622791
C372       C    0.6129961929    0.7955499865    0.0284314115
C373       C    0.6399068273    0.7750521620    0.0697718858
C374       C    0.6134148982    0.7542762749    0.1112432276
H375       H    0.5404014259    0.7386186594    0.1420736600
H376       H    0.5396753117    0.8104449982   -0.0020391054
H377       H    0.6326071015    0.8109295393   -0.0022681532
H378       H    0.6333332157    0.7391032005    0.1418446122
C359       C    0.1838425939    0.7588667299    0.9359133301
C360       C    0.1975755415    0.7580136037    0.8842896977
C361       C    0.2491286949    0.7570100702    0.8703852359
C362       C    0.2869489008    0.7568596627    0.9081044065
C363       C    0.2732159533    0.7577127888    0.9597280389
C364       C    0.2216627998    0.7587163224    0.9736325007
H365       H    0.1456798700    0.7596096054    0.9462062433
H366       H    0.2592954054    0.7563785575    0.8321731666
H367       H    0.3251116248    0.7561167872    0.8978114932
H368       H    0.2114960894    0.7593478351    1.0118445699
C349       C    0.1303414247    0.7864383562    0.5975762122
C350       C    0.0858631730    0.7748618313    0.6247837160
C351       C    0.0408592311    0.7630418299    0.5985672626
C352       C    0.0403335411    0.7627983535    0.5451433054
C353       C    0.0848117928    0.7743748785    0.5179358016
C354       C    0.1298157347    0.7861948798    0.5441522550
H355       H    0.1636560310    0.7951882274    0.6169831971
H356       H    0.0079351630    0.7544725532    0.6187053305
H357       H    0.0070189348    0.7540484824    0.5257363204
H358       H    0.1627398028    0.7947641565    0.5240141870
C339       C    0.3525964370   -0.0659740357    0.8977442793
C340       C    0.3981254672   -0.0415015528    0.8843215755
C341       C    0.4437781021   -0.0548592492    0.9086066985
C342       C    0.4439017067   -0.0926894285    0.9463145252
C343       C    0.3983726765   -0.1171619114    0.9597372289
C344       C    0.3527200417   -0.1038042150    0.9354521060
H345       H    0.3188016294   -0.0560858708    0.8797669805
H346       H    0.4774799732   -0.0367452270    0.8986720294
H347       H    0.4776965143   -0.1025775934    0.9642918240
H348       H    0.3190181706   -0.1219182372    0.9453867750
C329       C    0.1834600041   -0.0650729945    0.7591755685
C330       C    0.1972741807   -0.1166567344    0.7591932760
C331       C    0.2488553887   -0.1304869665    0.7592201056
C332       C    0.2866224199   -0.0927334587    0.7592292278
C333       C    0.2728082432   -0.0411497188    0.7592115204
C334       C    0.2212270353   -0.0273194867    0.7591846907
H335       H    0.1452765125   -0.0548350304    0.7591557076
H336       H    0.2590822256   -0.1686695052    0.7592332135
H337       H    0.3248059115   -0.1029714228    0.7592490887
H338       H    0.2110001984    0.0108630520    0.7591715829
C319       C    0.7909467842    0.5433517225    0.0244011741
C320       C    0.7909243275    0.5169591483    0.0708466064
C321       C    0.7909856975    0.5439660749    0.1169368749
C322       C    0.7910695241    0.5973655758    0.1165817111
C323       C    0.7910919808    0.6237581500    0.0701362789
C324       C    0.7910306109    0.5967512234    0.0240460104
H325       H    0.7909013545    0.5233595820   -0.0097175961
H326       H    0.7909690771    0.5244312400    0.1513170774
H327       H    0.7911149539    0.6173577163    0.1507004813
H328       H    0.7910472313    0.6162860583   -0.0103341922
C309       C    0.6119200902    0.1105585851    0.7518645184
C310       C    0.6390595953    0.0708422479    0.7750667617
C311       C    0.6127980466    0.0306999081    0.7985410121
C312       C    0.5593969928    0.0302739053    0.7988130191
C313       C    0.5322574877    0.0699902425    0.7756107758
C314       C    0.5585190364    0.1101325824    0.7521365254
H315       H    0.6313604574    0.1402743433    0.7344874759
H316       H    0.6328857807    0.0013007460    0.8157159730
H317       H    0.5399566256    0.0005581472    0.8161900616
H318       H    0.5384313023    0.1395317445    0.7349615645
C299       C    0.7557467551    0.2686751815    0.9110283788
C300       C    0.7739324812    0.2569514583    0.9598733194
C301       C    0.7919710355    0.2078399141    0.9705707879
C302       C    0.7918238637    0.1704520931    0.9324233157
C303       C    0.7736381375    0.1821758163    0.8835783751
C304       C    0.7555995832    0.2312873605    0.8728809067
H305       H    0.7423935396    0.3050304805    0.9031094736
H306       H    0.8054326163    0.1991605016    1.0067259779
H307       H    0.8051770792    0.1340967941    0.9403422210
H308       H    0.7421380025    0.2399667730    0.8367257167
C289       C    0.8320971421    0.0504834489    0.5440807396
C290       C    0.7895991732    0.0684379844    0.5171717397
C291       C    0.7472337020    0.0872773409    0.5436823561
C292       C    0.7473661998    0.0881621619    0.5971019725
C293       C    0.7898641687    0.0702076265    0.6240109724
C294       C    0.8322296398    0.0513682699    0.5975003559
H295       H    0.8634585947    0.0365374317    0.5244559975
H296       H    0.7157755157    0.1005678205    0.5237652491
H297       H    0.7160047471    0.1021081791    0.6167267146
H298       H    0.8636878261    0.0380777904    0.6174174630
C279       C   -0.1151589674    0.3824718689    0.9084197695
C280       C   -0.1008423789    0.3821944452    0.9598901542
C281       C   -0.0491287717    0.3820832205    0.9732198225
C282       C   -0.0117317531    0.3822494196    0.9350791061
C283       C   -0.0260483416    0.3825268433    0.8836087213
C284       C   -0.0777619488    0.3826380679    0.8702790531
H285       H   -0.1534404688    0.3825542040    0.8985523527
H286       H   -0.0385300471    0.3818778690    1.0113184402
H287       H    0.0265497483    0.3821670845    0.9449465228
H288       H   -0.0883606733    0.3828434195    0.8321804354
C269       C   -0.0121830729    0.2061187427    0.7574543434
C270       C   -0.0260132305    0.2576981001    0.7575589621
C271       C   -0.0775986849    0.2715122171    0.7576506564
C272       C   -0.1153539817    0.2337469767    0.7576377319
C273       C   -0.1015238241    0.1821676193    0.7575331131
C274       C   -0.0499383698    0.1683535023    0.7574414189
H275       H    0.0260035622    0.1958927080    0.7573864658
H276       H   -0.0878373509    0.3096915113    0.7577280977
H277       H   -0.1535406168    0.2439730114    0.7577056094
H278       H   -0.0396997038    0.1301742080    0.7573639775
C259       C    0.0653935580    0.5441794277    0.7335355558
C260       C    0.0852723230    0.5171267525    0.7750849930
C261       C    0.1055689766    0.5434725952    0.8168847851
C262       C    0.1059868651    0.5968711131    0.8171351400
C263       C    0.0861081001    0.6239237883    0.7755857028
C264       C    0.0658114465    0.5975779456    0.7337859107
H265       H    0.0503687626    0.5246766610    0.7025928525
H266       H    0.1202838101    0.5234491350    0.8476408536
H267       H    0.1210116605    0.6163738798    0.8480778432
H268       H    0.0510966130    0.6176014058    0.7030298421
C249       C    0.4073642249    0.5962362038    0.0316821317
C250       C    0.3815464601    0.6229818821    0.0700407708
C251       C    0.3554571226    0.5963276490    0.1082762974
C252       C    0.3551855498    0.5429277376    0.1081531848
C253       C    0.3810033147    0.5161820593    0.0697945456
C254       C    0.4070926522    0.5428362925    0.0315590191
H255       H    0.4266771112    0.6159672595    0.0033779108
H256       H    0.3363460791    0.6161238614    0.1366704357
H257       H    0.3358726636    0.5231966819    0.1364574057
H258       H    0.4262036956    0.5230400800    0.0031648807
C239       C    0.5588066965    0.4040021634    0.0953001598
C240       C    0.5323244866    0.3650302813    0.0701579764
C241       C    0.5592445349    0.3261336721    0.0453639425
C242       C    0.6126467931    0.3262089450    0.0457120920
C243       C    0.6391290029    0.3651808271    0.0708542753
C244       C    0.6122089547    0.4040774363    0.0956483092
H245       H    0.5388788686    0.4327957572    0.1136541849
H246       H    0.5396433492    0.2972855925    0.0267530031
H247       H    0.6325746210    0.2974153512    0.0273580669
H248       H    0.6318101404    0.4329255159    0.1142592486
C229       C    0.3661319571    0.1146402129    0.5450408131
C230       C    0.3818056105    0.0713605882    0.5179540870
C231       C    0.3972353037    0.0275361701    0.5442911340
C232       C    0.3969913437    0.0269913766    0.5977149071
C233       C    0.3813176903    0.0702710013    0.6248016332
C234       C    0.3658879970    0.1140954194    0.5984645862
H235       H    0.3547099764    0.1470816653    0.5255445576
H236       H    0.4088373746   -0.0045006412    0.5242424690
H237       H    0.4084133244   -0.0054500758    0.6172111626
H238       H    0.3542859262    0.1461322307    0.6185132511
C219       C    0.3531869347    0.2078296579    0.2457433339
C220       C    0.3985023060    0.1821467154    0.2575309907
C221       C    0.4434529938    0.1938454936    0.2311672991
C222       C    0.4430883103    0.2312272144    0.1930159507
C223       C    0.3977729390    0.2569101568    0.1812282939
C224       C    0.3528222512    0.2452113786    0.2075919855
H225       H    0.3199117503    0.1991695234    0.2652593134
H226       H    0.4769966932    0.1748354411    0.2398916464
H227       H    0.4763634947    0.2398873489    0.1734999711
H228       H    0.3192785519    0.2642214311    0.1988676382
C209       C    0.5583078507    0.0237214992    0.3657070334
C210       C    0.5323392796    0.0703779630    0.3664886076
C211       C    0.5597675022    0.1161889605    0.3672626960
C212       C    0.6131642960    0.1153434942    0.3672552102
C213       C    0.6391328671    0.0686870305    0.3664736360
C214       C    0.6117046445    0.0228760329    0.3656995476
H215       H    0.5380038418   -0.0101905379    0.3651340070
H216       H    0.5405465262    0.1507253590    0.3678412389
H217       H    0.6334683049    0.1492555314    0.3678282366
H218       H    0.6309256205   -0.0116603655    0.3651210047
C199       C    0.0410089369    0.3666918283    0.5431650621
C200       C    0.0876910400    0.3665196047    0.5172164485
C201       C    0.1334920543    0.3662365659    0.5446875765
C202       C    0.1326109655    0.3661257507    0.5981073182
C203       C    0.0859288624    0.3662979743    0.6240559318
C204       C    0.0401278481    0.3665810131    0.5965848038
H205       H    0.0071042900    0.3669013506    0.5228292919
H206       H    0.1680474306    0.3661090776    0.5254813744
H207       H    0.1665156124    0.3659162284    0.6184430884
H208       H    0.0055724718    0.3667085013    0.6157910059
C189       C    0.2212051854    0.3818240529    0.1679658422
C190       C    0.2729896864    0.3822806686    0.1810121204
C191       C    0.2875826548    0.3830928659    0.2323984251
C192       C    0.2503911221    0.3834484475    0.2707384517
C193       C    0.1986066211    0.3829918318    0.2576921735
C194       C    0.1840136528    0.3821796345    0.2063058687
H195       H    0.2104025985    0.3812228159    0.1299266296
H196       H    0.3259138202    0.3834308769    0.2420568601
H197       H    0.2611937091    0.3840496845    0.3087776643
H198       H    0.1456824874    0.3818416235    0.1966474338
C179       C    0.2507661856    0.2721923721    0.3835273589
C180       C    0.1991346794    0.2585525902    0.3835068570
C181       C    0.1851341414    0.2070208226    0.3834940372
C182       C    0.2227651097    0.1691288369    0.3835017191
C183       C    0.2743966159    0.1827686188    0.3835222210
C184       C    0.2883971539    0.2343003864    0.3835350409
H185       H    0.2611302202    0.3103392650    0.3835368489
H186       H    0.1469162410    0.1969230737    0.3834788613
H187       H    0.2124010751    0.1309819440    0.3834922291
H188       H    0.3266150543    0.2443981354    0.3835502167
C169       C    0.0407983171    0.5429829732    0.3666460184
C170       C    0.0874546750    0.5169999343    0.3665065163
C171       C    0.1332836074    0.5444112696    0.3663718189
C172       C    0.1324561819    0.5978056438    0.3663766234
C173       C    0.0857998240    0.6237886827    0.3665161254
C174       C    0.0399708916    0.5963773474    0.3666508229
H175       H    0.0068730034    0.5226914653    0.3667457295
H176       H    0.1678199281    0.5251795841    0.3662685557
H177       H    0.1663814955    0.6180971518    0.3662769123
H178       H    0.0054345709    0.6156090330    0.3667540861
loop_
_geom_bond_atom_site_label_1
_geom_bond_atom_site_label_2
_geom_bond_distance
_geom_bond_site_symmetry_2
_ccdc_geom_bond_type
O29         C39 1.250       .   A
O29        Cu37 1.951       .   S
O22        Cu24 1.951       .   S
O22         C25 1.250       .   A
O20        Cu24 1.951       .   S
O20         C27 1.251       .   A
O21        Cu24 1.951       .   S
O21         C26 1.250       .   A
C249       C250 1.540       .   A
C249       H255 1.140       .   S
C249       C254 1.540       .   A
O48        Cu52 1.951       .   S
O49        Cu52 1.951       .   S
O50        Cu52 1.951       .   S
Cu51       Cu52 2.630       .   S
O47        Cu52 1.951       .   S
O43        Cu51 1.951       .   S
O44        Cu51 1.951       .   S
O45        Cu51 1.951       .   S
O46        Cu51 1.951       .   S
C242       C243 1.540       .   A
C243        C81 1.862       .   S
C243       C244 1.540       .   A
C241       C242 1.540       .   A
C242       H247 1.140       .   S
C240       C241 1.540       .   A
C241       H246 1.140       .   S
C239       C240 1.540       .   A
C42        C240 1.862       .   S
C244       H248 1.140       .   S
C239       C244 1.540       .   A
O144      Cu149 1.951       .   S
Cu149     Cu150 2.630       .   S
O141      Cu149 1.951       .   S
O142      Cu149 1.951       .   S
O143      Cu149 1.951       .   S
C344       H348 1.140       .   S
C342       H347 1.140       .   S
C341       H346 1.140       .   S
C339       H345 1.140       .   S
O59         C69 1.250       .   A
O59        Cu65 1.951       .   S
O58         C68 1.250       .   A
O58        Cu65 1.951       .   S
C271       H276 1.140       .   S
O50         C53 1.250       .   A
O57         C67 1.250       .   A
O57        Cu65 1.951       .   S
C219       H225 1.140       .   S
C221       H226 1.140       .   S
C222       H227 1.140       .   S
O162      Cu164 1.951       .   S
O162       C165 1.250       .   A
O160       C167 1.251       .   A
O160      Cu164 1.951       .   S
O161       C166 1.250       .   A
O161      Cu164 1.951       .   S
C204       H208 1.140       .   S
C201       H206 1.140       .   S
C202       H207 1.140       .   S
C199       H205 1.140       .   S
O30         C40 1.250       .   A
C40        C253 1.848       .   S
O35         C40 1.250       .   A
O31         C41 1.250       .   A
O34         C41 1.251       .   A
C41        C190 1.546       .   S
O33         C42 1.250       .   A
O32         C42 1.250       .   A
O75        Cu80 1.951       .   S
O77        Cu80 1.951       .   S
O76        Cu80 1.951       .   S
Cu79       Cu80 2.630       .   S
O78        Cu80 1.951       .   S
C289       H295 1.140       .   S
C292       H297 1.140       .   S
C291       H296 1.140       .   S
C294       H298 1.140       .   S
C349       C354 1.540       .   A
C349       C350 1.540       .   A
C349       H355 1.140       .   S
C342       C343 1.540       .   A
C341       C342 1.540       .   A
C343       C126 1.554   1_546   S
C343       C344 1.540       .   A
C339       C340 1.540       .   A
C340       C341 1.540       .   A
C340        C96 1.554       .   S
C339       C344 1.540       .   A
C289       C294 1.540       .   A
C289       C290 1.540       .   A
C283       C284 1.540       .   A
C284       H288 1.140       .   S
C279       C284 1.540       .   A
C54        C283 1.563       .   S
C282       C283 1.540       .   A
C282       H287 1.140       .   S
C281       C282 1.540       .   A
C281       H286 1.140       .   S
C280       C281 1.540       .   A
C82        C280 1.563   1_654   S
C279       C280 1.540       .   A
C184       H188 1.140       .   S
C179       H185 1.140       .   S
C182       H187 1.140       .   S
O7         Cu10 1.951       .   S
O6         Cu10 1.951       .   S
O5         Cu10 1.951       .   S
Cu9        Cu10 2.630       .   S
O8         Cu10 1.951       .   S
O102       C112 1.250       .   A
O103       C112 1.250       .   A
C112       C263 1.846       .   S
O101       C111 1.250       .   A
C111       C330 1.548   1_565   S
O104       C111 1.251       .   A
O100       C110 1.250       .   A
O105       C110 1.250       .   A
C350       C110 1.846       .   S
O103      Cu108 1.951       .   S
O104      Cu108 1.951       .   S
O105      Cu108 1.951       .   S
O106      Cu108 1.951       .   S
Cu107     Cu108 2.630       .   S
O88        Cu93 1.951       .   S
O88         C98 1.250       .   A
O89         C98 1.250       .   A
O89        Cu94 1.951       .   S
O85        Cu93 1.951       .   S
O85         C95 1.250       .   A
O86        Cu93 1.951       .   S
O86         C96 1.250       .   A
O87        Cu93 1.951       .   S
O87         C97 1.250       .   A
O100      Cu107 1.951       .   S
O101      Cu107 1.951       .   S
O102      Cu107 1.951       .   S
O99       Cu107 1.951       .   S
C384       H388 1.140       .   S
C382       H387 1.140       .   S
C381       H386 1.140       .   S
C379       H385 1.140       .   S
O17        Cu23 1.951       .   S
O17         C27 1.250       .   A
O16         C26 1.250       .   A
O16        Cu23 1.951       .   S
O15        Cu23 1.951       .   S
O15         C25 1.250       .   A
O19        Cu24 1.951       .   S
O19         C28 1.250       .   A
O18         C28 1.250       .   A
O18        Cu23 1.951       .   S
C232       C233 1.540       .   A
C231       C232 1.540       .   A
C232       H237 1.140       .   S
C95        C233 1.847       .   S
C233       C234 1.540       .   A
C230       C231 1.540       .   A
C229       C230 1.540       .   A
C25        C230 1.847       .   S
C231       H236 1.140       .   S
C234       H238 1.140       .   S
C229       C234 1.540       .   A
C239       H245 1.140       .   S
O127       C137 1.250       .   A
O127      Cu135 1.951       .   S
O120      Cu122 1.951       .   S
O120       C123 1.250       .   A
O128      Cu135 1.951       .   S
O128       C138 1.250       .   A
O129       C139 1.250       .   A
O129      Cu135 1.951       .   S
C331       H336 1.140       .   S
C332       H337 1.140       .   S
C329       H335 1.140       .   S
C334       H338 1.140       .   S
C192       H197 1.140       .   S
C252       H257 1.140       .   S
C251       H256 1.140       .   S
C254       H258 1.140       .   S
C309       C310 1.540       .   A
C309       C314 1.540       .   A
C309       H315 1.140       .   S
C304       H308 1.140       .   S
C299       C304 1.540       .   A
C303       C304 1.540       .   A
C302       H307 1.140       .   S
C302       C303 1.540       .   A
C301       C302 1.540       .   A
C67        C303 1.563       .   S
C84        C300 1.563   1_554   S
C299       C300 1.540       .   A
C300       C301 1.540       .   A
C301       H306 1.140       .   S
O36         C39 1.250       .   A
C39        C223 1.559       .   S
O146       C153 1.251       .   A
C153       C393 1.538   1_645   S
O143       C153 1.250       .   A
O147       C152 1.250       .   A
C152       C290 1.828       .   S
O142       C152 1.250       .   A
C151       C400 1.547       .   S
O148       C151 1.250       .   A
O141       C151 1.250       .   A
C401       C402 1.540       .   A
C402       C403 1.540       .   A
C402       H407 1.140       .   S
C399       C404 1.540       .   A
C404       H408 1.140       .   S
C403       C404 1.540       .   A
O144       C154 1.250       .   A
O145       C154 1.250       .   A
C154       C213 1.827       .   S
C390       C391 1.540       .   A
C391       H396 1.140       .   S
C391       C392 1.540       .   A
C139       C390 1.538       .   S
C389       C390 1.540       .   A
C392       C393 1.540       .   A
C393       C394 1.540       .   A
C392       H397 1.140       .   S
C394       H398 1.140       .   S
C389       C394 1.540       .   A
C399       C400 1.540       .   A
C399       H405 1.140       .   S
C269       C274 1.540       .   A
C273       C274 1.540       .   A
C274       H278 1.140       .   S
C272       H277 1.140       .   S
C272       C273 1.540       .   A
C271       C272 1.540       .   A
C69        C273 1.551   1_655   S
C269       C270 1.540       .   A
C56        C270 1.551       .   S
C270       C271 1.540       .   A
C279       H285 1.140       .   S
O62        Cu66 1.951       .   S
O63        Cu66 1.951       .   S
O61        Cu66 1.951       .   S
O64        Cu66 1.951       .   S
Cu65       Cu66 2.630       .   S
O60        Cu65 1.951       .   S
O130      Cu135 1.951       .   S
Cu135     Cu136 2.630       .   S
O131      Cu136 1.951       .   S
O133      Cu136 1.951       .   S
O132      Cu136 1.951       .   S
O134      Cu136 1.951       .   S
C371       H376 1.140       .   S
C372       H377 1.140       .   S
C369       H375 1.140       .   S
C374       H378 1.140       .   S
O48         C55 1.251       .   A
O49         C54 1.250       .   A
O43         C53 1.250       .   A
O44         C54 1.250       .   A
O45         C55 1.250       .   A
O46         C56 1.250       .   A
O47         C56 1.250       .   A
C214       H218 1.140       .   S
C264       H268 1.140       .   S
C209       H215 1.140       .   S
C212       H217 1.140       .   S
C211       H216 1.140       .   S
C70        C310 1.846       .   S
O60         C70 1.250       .   A
O61         C70 1.250       .   A
Cu93       Cu94 2.630       .   S
O92        Cu94 1.951       .   S
O91        Cu94 1.951       .   S
O90        Cu94 1.951       .   S
C354       H358 1.140       .   S
C353       C354 1.540       .   A
C350       C351 1.540       .   A
C351       H356 1.140       .   S
C351       C352 1.540       .   A
C353       C138 1.846       .   S
C352       C353 1.540       .   A
C352       H357 1.140       .   S
C259       H265 1.140       .   S
C261       H266 1.140       .   S
C262       H267 1.140       .   S
C359       C364 1.540       .   A
C359       H365 1.140       .   S
C359       C360 1.540       .   A
Cu23       Cu24 2.630       .   S
O113       C123 1.250       .   A
C123       C370 1.849       .   S
O117       C126 1.250       .   A
O116       C126 1.250       .   A
O119       C124 1.250       .   A
C124       C363 1.554   1_554   S
O114       C124 1.250       .   A
C250       C125 1.848       .   S
O118       C125 1.251       .   A
O115       C125 1.250       .   A
C97        C313 1.846       .   S
O90         C97 1.251       .   A
O91         C96 1.250       .   A
O92         C95 1.250       .   A
C98        C333 1.548       .   S
C229       H235 1.140       .   S
C224       H228 1.140       .   S
C219       C224 1.540       .   A
C223       C224 1.540       .   A
C220       C221 1.540       .   A
C221       C222 1.540       .   A
C26        C220 1.559       .   S
C219       C220 1.540       .   A
C222       C223 1.540       .   A
O131       C140 1.250       .   A
O130       C140 1.250       .   A
O133       C138 1.250       .   A
O132       C139 1.251       .   A
O134       C137 1.250       .   A
Cu163     Cu164 2.630       .   S
O159      Cu164 1.951       .   S
O157      Cu163 1.951       .   S
O156      Cu163 1.951       .   S
O155      Cu163 1.951       .   S
O158      Cu163 1.951       .   S
C324       H328 1.140       .   S
C319       H325 1.140       .   S
C322       H327 1.140       .   S
C321       H326 1.140       .   S
O145      Cu150 1.951       .   S
O146      Cu150 1.951       .   S
O147      Cu150 1.951       .   S
O148      Cu150 1.951       .   S
C319       C320 1.540       .   A
C319       C324 1.540       .   A
C310       C311 1.540       .   A
C311       H316 1.140       .   S
C311       C312 1.540       .   A
C312       C313 1.540       .   A
C313       C314 1.540       .   A
C312       H317 1.140       .   S
C314       H318 1.140       .   S
C27        C210 1.827       .   S
C28        C183 1.538       .   S
C168       C403 1.547   1_565   S
O159       C168 1.250       .   A
O158       C168 1.250       .   A
C169       C170 1.540       .   A
C169       C174 1.540       .   A
C169       H175 1.140       .   S
O156       C166 1.250       .   A
C166       C380 1.560   1_655   S
O157       C167 1.250       .   A
C167       C323 1.862       .   S
O155       C165 1.250       .   A
C165       C373 1.849       .   S
C369       C374 1.540       .   A
C369       C370 1.540       .   A
C364       H368 1.140       .   S
C363       C364 1.540       .   A
C360       C361 1.540       .   A
C109       C360 1.554       .   S
C361       C362 1.540       .   A
C361       H366 1.140       .   S
C362       H367 1.140       .   S
C362       C363 1.540       .   A
C179       C184 1.540       .   A
C183       C184 1.540       .   A
C179       C180 1.540       .   A
C180       C181 1.540       .   A
C180        C14 1.538       .   S
C181       H186 1.140       .   S
C181       C182 1.540       .   A
C182       C183 1.540       .   A
C189       H195 1.140       .   S
C189       C194 1.540       .   A
C189       C190 1.540       .   A
C260       C261 1.540       .   A
C261       C262 1.540       .   A
C259       C260 1.540       .   A
C55        C260 1.846       .   S
C262       C263 1.540       .   A
C263       C264 1.540       .   A
C259       C264 1.540       .   A
C269       H275 1.140       .   S
O74        Cu79 1.951       .   S
O71        Cu79 1.951       .   S
O73        Cu79 1.951       .   S
O72        Cu79 1.951       .   S
O119      Cu122 1.951       .   S
O118      Cu122 1.951       .   S
O117      Cu122 1.951       .   S
Cu121     Cu122 2.630       .   S
C400       C401 1.540       .   A
C401       H406 1.140       .   S
O113      Cu121 1.951       .   S
O116      Cu121 1.951       .   S
O115      Cu121 1.951       .   S
O114      Cu121 1.951       .   S
C209       C214 1.540       .   A
C213       C214 1.540       .   A
C210       C211 1.540       .   A
C209       C210 1.540       .   A
O78         C81 1.250       .   A
C211       C212 1.540       .   A
C212       C213 1.540       .   A
O75         C84 1.250       .   A
O74         C84 1.250       .   A
O77         C82 1.250       .   A
O76         C83 1.251       .   A
O71         C81 1.250       .   A
O73         C83 1.250       .   A
O72         C82 1.250       .   A
O106       C109 1.250       .   A
O63         C68 1.250       .   A
C68        C293 1.828       .   S
O62         C69 1.251       .   A
O64         C67 1.250       .   A
C171       H176 1.140       .   S
C172       H177 1.140       .   S
C174       H178 1.140       .   S
C320       C321 1.540       .   A
C83        C320 1.862       .   S
C321       C322 1.540       .   A
C322       C323 1.540       .   A
C323       C324 1.540       .   A
C329       C330 1.540       .   A
C329       C334 1.540       .   A
O6          C13 1.251       .   A
O3          C13 1.250       .   A
C13        C170 1.828       .   S
O7          C12 1.250       .   A
C12        C193 1.546       .   S
O2          C12 1.250       .   A
C200        C11 1.828       .   S
O1          C11 1.250       .   A
O8          C11 1.250       .   A
O5          C14 1.250       .   A
O4          C14 1.250       .   A
C383       C137 1.560       .   S
O31        Cu37 1.951       .   S
O30        Cu37 1.951       .   S
O32        Cu37 1.951       .   S
Cu37       Cu38 2.630       .   S
O33        Cu38 1.951       .   S
O35        Cu38 1.951       .   S
O34        Cu38 1.951       .   S
O36        Cu38 1.951       .   S
C331       C332 1.540       .   A
C330       C331 1.540       .   A
C250       C251 1.540       .   A
C251       C252 1.540       .   A
C252       C253 1.540       .   A
C253       C254 1.540       .   A
O4          Cu9 1.951       .   S
O3          Cu9 1.951       .   S
O2          Cu9 1.951       .   S
O1          Cu9 1.951       .   S
C53        C203 1.828       .   S
C170       C171 1.540       .   A
C171       C172 1.540       .   A
C140       C173 1.828       .   S
C172       C173 1.540       .   A
C173       C174 1.540       .   A
C379       C384 1.540       .   A
C379       C380 1.540       .   A
C373       C374 1.540       .   A
C372       C373 1.540       .   A
C371       C372 1.540       .   A
C370       C371 1.540       .   A
C194       H198 1.140       .   S
C193       C194 1.540       .   A
C192       C193 1.540       .   A
C191       C192 1.540       .   A
C191       H196 1.140       .   S
C190       C191 1.540       .   A
C199       C204 1.540       .   A
C199       C200 1.540       .   A
C299       H305 1.140       .   S
C293       C294 1.540       .   A
C290       C291 1.540       .   A
C291       C292 1.540       .   A
C292       C293 1.540       .   A
O99        C109 1.250       .   A
C389       H395 1.140       .   S
C203       C204 1.540       .   A
C202       C203 1.540       .   A
C201       C202 1.540       .   A
C200       C201 1.540       .   A
C332       C333 1.540       .   A
C333       C334 1.540       .   A
C383       C384 1.540       .   A
C382       C383 1.540       .   A
C381       C382 1.540       .   A
C380       C381 1.540       .   A
