data_fjh_v1-3c_triazine_Ch_v2-4c_Cu_1_Ch_v3-4c_Cu_1_Ch_1B_4H_Ch
_audit_creation_date              2020-02-03
_audit_creation_method            'tobacco_3.0'
_symmetry_space_group_name_H-M    'P1'
_symmetry_Int_Tables_number       1
_symmetry_cell_setting            triclinic
loop_
_symmetry_equiv_pos_as_xyz
  x,y,z
_cell_length_a                    40.849706548534506
_cell_length_b                    40.849706581517935
_cell_length_c                    28.8851338834339
_cell_angle_alpha                 89.99999999584274
_cell_angle_beta                  90.00000000415697
_cell_angle_gamma                 89.99999999353604
loop_
_atom_site_label
_atom_site_type_symbol
_atom_site_fract_x
_atom_site_fract_y
_atom_site_fract_z
C1         C    0.5188496191    0.2311504009    0.2123009181
N2         N    0.5000005717    0.2123025082    0.2499989233
C3         C    0.4811509527    0.2311521073    0.2876980053
N4         N    0.4811503809    0.2688495991    0.2876990819
C5         C    0.4999994283    0.2876974918    0.2500010767
N6         N    0.5188490473    0.2688478927    0.2123019947
O7         O    0.4999997001    0.4525039286    0.2115062823
O8         O    0.5000004212    0.5474974573    0.2115078307
O9         O    0.5474978292    0.5000046610    0.2115094585
O10        O    0.4524988311    0.5000001878    0.2115046463
O11        O    0.4524979276    0.4999999560    0.2884912561
O12        O    0.5474934635    0.5000009686    0.2884959424
O13        O    0.4999995178    0.5474972255    0.2884944405
O14        O    0.4999987967    0.4525036968    0.2884928921
Cu15      Cu    0.5000005596    0.5000033016    0.2044815697
Cu16      Cu    0.4999986583    0.4999978525    0.2955191531
C17        C    0.4999997312    0.4384973047    0.2500003734
C18        C    0.4999994867    0.5615038494    0.2500003494
C19        C    0.5615007389    0.5000004377    0.2500003614
C20        C    0.4384984790    0.5000007164    0.2500003614
C21        C    0.7688487792    0.5188504276    0.2123013232
N22        N    0.7311512874    0.5188498494    0.2123024239
C23        C    0.7123017035    0.5000002670    0.2500015577
N24        N    0.7311496115    0.4811512628    0.2876995909
C25        C    0.7688471033    0.4811518411    0.2876984903
N26        N    0.7876966871    0.5000014235    0.2499993564
C27        C    0.4811503173    0.7688497008    0.2123008295
N28        N    0.4811507748    0.7311522090    0.2123019560
C29        C    0.5000003707    0.7123025778    0.2500010290
N30        N    0.5188495092    0.7311504383    0.2876989753
C31        C    0.5188490516    0.7688479301    0.2876978487
N32        N    0.4999994557    0.7876975614    0.2499987758
C33        C    0.2311500476    0.5188506675    0.2876995953
N34        N    0.2688475394    0.5188500614    0.2876984859
C35        C    0.2876971050    0.5000004652    0.2499993476
N36        N    0.2688491787    0.4811514749    0.2123013188
C37        C    0.2311516869    0.4811520809    0.2123024283
N38        N    0.2123021213    0.5000016772    0.2500015666
C39        C    0.4811503922    0.7688496347    0.7876987706
N40        N    0.4811508775    0.7311521429    0.7876977341
C41        C    0.5000004447    0.7123024805    0.7499986635
N42        N    0.5188495265    0.7311503099    0.7123006295
C43        C    0.5188490412    0.7688478017    0.7123016661
N44        N    0.4999994741    0.7876974641    0.7500007366
O45        O    0.4999995846    0.5474971481    0.7115058766
O46        O    0.4999988696    0.4525036194    0.7115074621
O47        O    0.4525014585    0.4999964126    0.7115090713
O48        O    0.5475004567    0.5000008920    0.7115042592
O49        O    0.5475013602    0.5000011388    0.7884908690
O50        O    0.4525058243    0.5000001200    0.7884955552
O51        O    0.4999997731    0.4525038662    0.7884940719
O52        O    0.5000004880    0.5474973950    0.7884924863
Cu53      Cu    0.4999987282    0.4999977737    0.7044811825
Cu54      Cu    0.5000006294    0.5000032406    0.7955187659
C55        C    0.4999995526    0.5615037796    0.7499999622
C56        C    0.4999998050    0.4384972348    0.7499999862
C57        C    0.4384985489    0.5000006425    0.7499999742
C58        C    0.5615008088    0.5000003718    0.7499999742
C59        C    0.2311499838    0.4811514812    0.7876994084
N60        N    0.2688474756    0.4811519823    0.7876982575
C61        C    0.2876970730    0.5000015261    0.7499990986
N62        N    0.2688491785    0.5188505688    0.7123010905
C63        C    0.2311516867    0.5188500678    0.7123022413
N64        N    0.2123020893    0.5000005240    0.7500014003
C65        C    0.5188497524    0.2311503371    0.7876987989
N66        N    0.5188491669    0.2688478289    0.7876977983
C67        C    0.4999994983    0.2876974591    0.7499987970
N68        N    0.4811504152    0.2688495976    0.7123007964
C69        C    0.4811510006    0.2311521058    0.7123017971
N70        N    0.5000006692    0.2123024756    0.7500007984
C71        C    0.7688488667    0.5188504087    0.7876993928
N72        N    0.7311513749    0.5188498300    0.7876982731
C73        C    0.7123018008    0.5000002473    0.7499991297
N74        N    0.7311497185    0.4811512434    0.7123011060
C75        C    0.7688472104    0.4811518222    0.7123022258
N76        N    0.7876967844    0.5000014048    0.7500013692
C77        C    0.9811502172    0.7311510900    0.7876991501
N78        N    0.9999992148    0.7123031371    0.7500011553
C79        C    1.0188488318    0.7311526760    0.7123020111
N80        N    1.0188494512    0.7688501678    0.7123008618
C81        C    1.0000004536    0.7876981207    0.7499988566
N82        N    0.9811508366    0.7688485818    0.7876980008
O83        O    0.0000003261    1.0474961590    0.7884933026
O84        O    0.0000014333    0.9525026303    0.7884917356
O85        O    0.0474986482    0.9999956196    0.7884903738
O86        O   -0.0475003499    0.9999997068    0.7884946725
O87        O   -0.0475010454    0.9999999461    0.7115080627
O88        O    0.0474944905    0.9999993195    0.7115038899
O89        O    0.0000007378    0.9525028696    0.7115051258
O90        O   -0.0000003693    1.0474963983    0.7115066928
Cu91      Cu    0.0000013596    0.9999967853    0.7955180059
Cu92      Cu   -0.0000002957    1.0000022433    0.7044804225
C93        C    0.0000004042    1.0615027867    0.7499992142
C94        C    0.0000006597    0.9384962419    0.7499992142
C95        C    0.0615016619    0.9999999036    0.7499995466
C96        C   -0.0615005980    0.9999991250    0.7499988818
C97        C    0.2688494451    0.0188498051    0.7123006770
N98        N    0.2311519532    0.0188491663    0.7123017173
C99        C    0.2123023695   -0.0000004481    0.7500008192
N100       N    0.2311502775   -0.0188494237    0.7876988808
C101       C    0.2688477693   -0.0188487849    0.7876978406
N102       N    0.2876973531    0.0000008295    0.7499987387
C103       C    0.9999997325    0.2123014323    0.7499999011
N104       N    1.0188481390    0.2311510266    0.7876968456
C105       C    1.0188480147    0.2688501958    0.7876969505
N106       N    0.9999994840    0.2876997707    0.7500001108
C107       C    0.9811510775    0.2688501764    0.7123031663
N108       N    0.9811512018    0.2311510072    0.7123030614
C109       C    0.7311534514    0.9811466207    0.7122979435
N110       N    0.7123055340    0.9999956113    0.7499959809
C111       C    0.7311551085    1.0188452038    0.7876951141
N112       N    0.7688526003    1.0188458057    0.7876962098
C113       C    0.7877005177    0.9999968152    0.7499981724
N114       N    0.7688509432    0.9811472227    0.7122990393
C115       C    0.9811497048    0.2688506298    0.2876995087
N116       N    0.9999987194    0.2876985547    0.2500015029
C117       C    1.0188483194    0.2688489877    0.2123023697
N118       N    1.0188489047    0.2311514959    0.2123012424
C119       C    0.9999998900    0.2123035711    0.2499992482
N120       N    0.9811502901    0.2311531381    0.2876983814
O121       O    0.9999996251    0.0474973211    0.2884942910
O122       O    1.0000004495   -0.0474962076    0.2884927240
O123       O    1.0474978058   -0.0000033597    0.2884911634
O124       O    0.9524988077    0.0000010103    0.2884958598
O125       O    0.9524979511    0.0000012496    0.2115092500
O126       O    1.0474934870    0.0000003402    0.2115046795
O127       O    0.9999995929   -0.0474959683    0.2115061142
O128       O    0.9999987685    0.0474975604    0.2115076812
Cu129     Cu    1.0000005319   -0.0000020526    0.2955189943
Cu130     Cu    0.9999986861    0.0000034054    0.2044814109
C131       C    0.9999996643    0.0615039488    0.2500002026
C132       C    0.9999995536   -0.0615025960    0.2500002026
C133       C    1.0615007389    0.0000008826    0.2500002776
C134       C    0.9384984790    0.0000004702    0.2500001277
C135       C    0.7311508591    0.9811499190    0.2876986102
N136       N    0.7123029419    0.9999988546    0.2500005177
C137       C    0.7311525165    1.0188485091    0.2123014467
N138       N    0.7688500083    1.0188492280    0.2123004682
C139       C    0.7876979255    1.0000002924    0.2499985607
N140       N    0.7688483509    0.9811506379    0.2876976317
C141       C    0.9811499150    0.7311513677    0.2123012574
N142       N    0.9999989409    0.7123034692    0.2499992783
C143       C    1.0188485296    0.7311530624    0.2876983964
N144       N    1.0188490924    0.7688505542    0.2876994937
C145       C    1.0000000665    0.7876984528    0.2500014728
N146       N    0.9811504778    0.7688488595    0.2123023547
C147       C    0.2688490491   -0.0188489834    0.2123010023
N148       N    0.2876969714    0.0000000152    0.2499990266
C149       C    0.2688474019    0.0188495996    0.2876981728
N150       N    0.2311499101    0.0188501853    0.2876992947
C151       C    0.2123019878    0.0000011866    0.2500012704
N152       N    0.2311515573   -0.0188483977    0.2123021242
O153       O    0.0820041640    0.3704998266   -0.0474963987
O154       O    0.1295020196    0.4179962035    0.0474963299
O155       O    0.1295051804    0.4179976718   -0.0474937778
O156       O    0.0820010001    0.3704983633    0.0475006330
O157       O    0.1204937785    0.3320044537    0.0475013571
O158       O    0.1679944345    0.3795003637   -0.0474930520
O159       O    0.1679947981    0.3795022939    0.0474970540
O160       O    0.1204969425    0.3320059170   -0.0474956746
Cu161     Cu    0.1022418984    0.3977623156    0.0000020706
Cu162     Cu    0.1477570636    0.3522398049   -0.0000014153
C163       C    0.0942479402    0.3442494622   -0.0615030157
C164       C    0.1557510219    0.4057526583    0.0615036710
C165       C    0.1557500013    0.4057515419   -0.0615008678
C166       C    0.0942489608    0.3442505787    0.0615015231
O167       O    0.6204996596    0.1679944311    1.0474955615
O168       O    0.6679952828    0.1204970963    0.9525015586
O169       O    0.6204994096    0.1679914274    0.9524967966
O170       O    0.6679989988    0.1204966421    1.0475003217
O171       O    0.6295059558    0.0820029970    1.0475015197
O172       O    0.5820064305    0.1294978445    0.9525049174
O173       O    0.6295022398    0.0820034513    0.9525027565
O174       O    0.5820066166    0.1295007861    1.0474967595
Cu175     Cu    0.6477612762    0.1477574526    0.9999954468
Cu176     Cu    0.6022406232    0.1022404297    1.0000028713
C177       C    0.5942492505    0.1557507340    1.0615021494
C178       C    0.6557526489    0.0942471484    0.9384961687
C179       C    0.5942503664    0.1557495299    0.9384981336
C180       C    0.6557515330    0.0942483525    1.0615001845
O181       O    0.9179947374    0.6295020297   -0.0474963425
O182       O    0.8704967602    0.5820057820    0.0474963936
O183       O    0.8704936696    0.5820042359   -0.0474937141
O184       O    0.9179978311    0.6295035708    0.0475006892
O185       O    0.8795050943    0.6679975220    0.0475012934
O186       O    0.8320044572    0.6205015856   -0.0474931082
O187       O    0.8320040234    0.6204997333    0.0474969978
O188       O    0.8795020006    0.6679959809   -0.0474957383
Cu189     Cu    0.8977569384    0.6022396015    0.0000021415
Cu190     Cu    0.8522418224    0.6477621615   -0.0000014862
C191       C    0.9057510000    0.6557523959   -0.0615030206
C192       C    0.8442477608    0.5942493671    0.0615036759
C193       C    0.8442488723    0.5942503828   -0.0615008629
C194       C    0.9057498885    0.6557513802    0.0615015182
O195       O    0.3795009098    0.8320049580    0.9525032614
O196       O    0.3320045746    0.8795028885    1.0474959568
O197       O    0.3320030822    0.8795059919    0.9525058491
O198       O    0.3795023973    0.8320018514    1.0475002931
O199       O    0.4179963211    0.8704946156    1.0475009512
O200       O    0.3705004045    0.9179952317    0.9525065088
O201       O    0.3704984985    0.9179956527    1.0474966148
O202       O    0.4179948336    0.8704977222    0.9525039195
Cu203     Cu    0.3522384403    0.8522427311    1.0000017201
Cu204     Cu    0.3977609679    0.8977578795    0.9999981561
C205       C    0.4057512752    0.8442487160    0.9384966163
C206       C    0.3442481331    0.9057518947    1.0615032600
C207       C    0.3442492182    0.9057507998    0.9384987212
C208       C    0.4057501901    0.8442498109    1.0615011551
O209       O    0.1679950210    0.6204998801    0.5474970166
O210       O    0.1204970974    0.6679962098    0.4525043090
O211       O    0.1204939803    0.6679977009    0.5474944167
O212       O    0.1679981413    0.6204983941    0.4524999849
O213       O    0.1295053826    0.5820044647    0.4524993146
O214       O    0.0820047459    0.6295003731    0.5474937447
O215       O    0.0820043387    0.6295022805    0.4525036387
O216       O    0.1295022623    0.5820059508    0.5474963463
Cu217     Cu    0.1477572508    0.6477623474    0.4999985529
Cu218     Cu    0.1022421089    0.6022398133    0.5000021024
C219       C    0.1557512648    0.5942495128    0.5615036575
C220       C    0.0942480949    0.6557526478    0.4384969978
C221       C    0.0942491721    0.6557515609    0.5615015366
C222       C    0.1557501876    0.5942505997    0.4384991187
O223       O    0.4179950316    0.1295014874    0.4525032752
O224       O    0.3704971021    0.0820051875    0.5474960067
O225       O    0.3704939336    0.0820037239    0.4525058990
O226       O    0.4179982032    0.1295029461    0.5475003068
O227       O    0.3795054908    0.1679969218    0.5475010409
O228       O    0.3320047456    0.1205010981    0.4525066348
O229       O    0.3320043897    0.1204991632    0.5474967408
O230       O    0.3795023192    0.1679954632    0.4525040092
Cu231     Cu    0.3977572542    0.1022390309    0.5000017450
Cu232     Cu    0.3522421671    0.1477616198    0.4999982709
C233       C    0.4057512994    0.1557518736    0.4384966627
C234       C    0.3442481219    0.0942487771    0.5615033533
C235       C    0.3442491326    0.0942498995    0.4384988145
C236       C    0.4057502887    0.1557507511    0.5615012015
O237       O    0.9179945331    0.3704996535    0.5474969963
O238       O    0.8704965866    0.4179960009    0.4525043293
O239       O    0.8704934898    0.4179974716    0.5474944370
O240       O    0.9179976331    0.3704981877    0.4524999646
O241       O    0.8795048766    0.3320042563    0.4524992943
O242       O    0.8320042576    0.3795001417    0.5474937650
O243       O    0.8320038300    0.3795020694    0.4525036590
O244       O    0.8795017766    0.3320057220    0.5474963260
Cu245     Cu    0.8977567512    0.3977621298    0.4999985529
Cu246     Cu    0.8522416119    0.3522395931    0.5000021024
C247       C    0.9057507814    0.3442492825    0.5615036312
C248       C    0.8442475818    0.4057524404    0.4384970241
C249       C    0.8442486852    0.4057513272    0.5615015629
C250       C    0.9057496779    0.3442503957    0.4384990924
O251       O    0.6295022442    0.9179944399    0.4525027737
O252       O    0.5820065857    0.8704973804    0.5474970167
O253       O    0.6295028696    0.9179913008    0.5475015386
O254       O    0.5820024942    0.8704970616    0.4524982536
O255       O    0.6204952043    0.8320030837    0.4524966415
O256       O    0.6679955159    0.8794973850    0.5474930037
O257       O    0.6204992958    0.8320034024    0.5474954047
O258       O    0.6679949543    0.8795004620    0.4525011616
Cu259     Cu    0.6022406403    0.8977576294    0.5000030463
Cu260     Cu    0.6477608997    0.8522402129    0.4999951321
C261       C    0.6557524920    0.9057505357    0.4384959434
C262       C    0.5942490480    0.8442473066    0.5615022349
C263       C    0.6557518623    0.9057491562    0.5614999592
C264       C    0.5942496777    0.8442486861    0.4384982192
C735       C    0.2886974822   -0.0820875093    0.1068912790
C736       C    0.3253984117   -0.0753983744    0.0992025964
C737       C    0.3432495206   -0.0498594095    0.1292134485
C738       C    0.3243997001   -0.0310095794    0.1669129833
C739       C    0.2876987705   -0.0376987143    0.1746016659
C740       C    0.2698476616   -0.0632376793    0.1445908138
H741       H    0.2754830249   -0.1009929769    0.0846754535
H742       H    0.3704159832   -0.0449073274    0.1235232627
H743       H    0.3376141573   -0.0121041119    0.1891288088
H744       H    0.2426811991   -0.0681897614    0.1502809996
C725       C    0.2897238232    0.0753200684    0.3234541000
C726       C    0.2876982053    0.0377000453    0.3253990746
C727       C    0.3045226493    0.0189297265    0.3650434683
C728       C    0.3233727113    0.0377794308    0.4027428874
C729       C    0.3253983292    0.0753994539    0.4007979127
C730       C    0.3085738852    0.0941697727    0.3611535190
H731       H    0.2772693646    0.0892149797    0.2941069514
H732       H    0.3030238266   -0.0089170749    0.3664843863
H733       H    0.3358271699    0.0238845195    0.4320900360
H734       H    0.3100727079    0.1220165741    0.3597126011
C715       C    1.0611853900    0.7306917804    0.3580011708
C716       C    1.0376985359    0.7123028438    0.3253982768
C717       C    1.0330614582    0.6750639186    0.3304948031
C718       C    1.0519112345    0.6562139299    0.3681942234
C719       C    1.0753980886    0.6746028665    0.4007971175
C720       C    1.0800351663    0.7118417917    0.3957005911
H721       H    1.0646180320    0.7582582575    0.3542284175
H722       H    1.0156764255    0.6614513146    0.3063624181
H723       H    1.0484785925    0.6286474528    0.3719669767
H724       H    1.0974201990    0.7254543957    0.4198329761
C705       C    0.9640751291    0.7236191813    0.1238070698
C706       C    0.9622997201    0.7123011826    0.1746009461
C707       C    0.9416744927    0.6821333753    0.1876952642
C708       C    0.9228246744    0.6632835667    0.1499957059
C709       C    0.9246000833    0.6746015653    0.0992018295
C710       C    0.9452253107    0.7047693726    0.0861075114
H711       H    0.9793431545    0.7459511945    0.1141138733
H712       H    0.9403596886    0.6737548782    0.2252931254
H713       H    0.9075566489    0.6409515534    0.1596889023
H714       H    0.9465401149    0.7131478697    0.0485096503
C695       C    0.6754607698    0.9622853852    0.4016404990
C696       C    0.6746019801    0.9246002779    0.4007968173
C697       C    0.6925928859    0.9057651201    0.3622535952
C698       C    0.7114425813    0.9246150695    0.3245540546
C699       C    0.7123013709    0.9623001768    0.3253977363
C700       C    0.6943104651    0.9811353347    0.3639409585
H701       H    0.6621428265    0.9762282943    0.4301724946
H702       H    0.6919577822    0.8778701415    0.3616278852
H703       H    0.7247605245    0.9106721605    0.2960220590
H704       H    0.6949455688    1.0090303132    0.3645666684
C685       C    0.7101943516    1.0238137319    0.1251227687
C686       C    0.7123019364    1.0376988042    0.1746004627
C687       C    0.6955596095    1.0704335031    0.1863785095
C688       C    0.6767096978    1.0892831298    0.1486788624
C689       C    0.6746021131    1.0753980574    0.0992011685
C690       C    0.6913444400    1.0426633585    0.0874231217
H691       H    0.7225880222    0.9995815522    0.1164039549
H692       H    0.6971191064    1.0807122203    0.2230020954
H693       H    0.6643160273    1.1135153095    0.1573976763
H694       H    0.6897849431    1.0323846414    0.0507995357
C675       C    1.0261955349   -0.1180525032    0.2775582091
C676       C    0.9999996819   -0.0992024598    0.2500005202
C677       C    0.9738039571   -0.1180520282    0.2224431487
C678       C    0.9738040853   -0.1557516401    0.2224434663
C679       C    0.9999999383   -0.1746016834    0.2500011553
C680       C    1.0261956631   -0.1557521150    0.2775585267
H681       H    1.0455871753   -0.1040989265    0.2979578218
H682       H    0.9544130508   -0.1040998896    0.2020441732
H683       H    0.9544124449   -0.1697052167    0.2020438537
H684       H    1.0455865694   -0.1697042536    0.2979575022
C665       C    0.8819477540    0.0163395444    0.2100255557
C666       C    0.9007978141    0.0000004258    0.2499997359
C667       C    0.8819482624   -0.0163387374    0.2899735244
C668       C    0.8442486506   -0.0163387818    0.2899731327
C669       C    0.8253985904    0.0000003369    0.2499989525
C670       C    0.8442481421    0.0163395000    0.2100251640
H671       H    0.8959013183    0.0284347691    0.1804345694
H672       H    0.8959004134   -0.0284334121    0.3195635356
H673       H    0.8302950863   -0.0284340065    0.3195641190
H674       H    0.8302959912    0.0284341747    0.1804351528
C655       C    1.1180520607   -0.0326285775    0.2515752933
C656       C    1.0992017515    0.0000009586    0.2500005258
C657       C    1.1180510542    0.0326305707    0.2484260064
C658       C    1.1557506660    0.0326306467    0.2484262546
C659       C    1.1746009752    0.0000011106    0.2500010222
C660       C    1.1557516725   -0.0326285015    0.2515755415
H661       H    1.1040986808   -0.0567829657    0.2527408466
H662       H    1.1040987189    0.0567838700    0.2472603192
H663       H    1.1697040460    0.0567850350    0.2472607013
H664       H    1.1697040078   -0.0567818008    0.2527412287
C645       C    1.0198570786    0.1557532095    0.2866497411
C646       C    0.9999998336    0.1746033717    0.2499994868
C647       C    0.9801425322    0.1557539222    0.2133494711
C648       C    0.9801424757    0.1180543104    0.2133497097
C649       C    0.9999997207    0.0992041481    0.2499999640
C650       C    1.0198570222    0.1180535976    0.2866499797
H651       H    1.0345566394    0.1697066981    0.3137802722
H652       H    0.9654436416    0.1697061488    0.1862199233
H653       H    0.9654429149    0.1041008218    0.1862191786
H654       H    1.0345559128    0.1041013710    0.3137795275
C635       C    0.9427279314    0.3186255680    0.3126038181
C636       C    0.9622995334    0.2877007360    0.3253997340
C637       C    0.9630212933    0.2756256808    0.3758952164
C638       C    0.9441714512    0.2944754576    0.4135947830
C639       C    0.9245998493    0.3254002896    0.4007988671
C640       C    0.9238780894    0.3374753448    0.3503033847
H641       H    0.9421936416    0.3275642452    0.2752240454
H642       H    0.9775081463    0.2527348480    0.3853683059
H643       H    0.9447057410    0.2855367804    0.4509745557
H644       H    0.9093912364    0.3603661776    0.3408302952
C625       C    1.0749176399    0.2927557333    0.1791755689
C626       C    1.0376988758    0.2876997815    0.1746013659
C627       C    1.0193298760    0.3014938314    0.1323277434
C628       C    1.0381796403    0.3203438330    0.0946283239
C629       C    1.0753984043    0.3253997848    0.0992025269
C630       C    1.0937674041    0.3116057350    0.1414761494
H631       H    1.0885154709    0.2825445536    0.2104690297
H632       H    0.9917800978    0.2977518703    0.1289405968
H633       H    1.0245818093    0.3305550127    0.0633348632
H634       H    1.1213171823    0.3153476960    0.1448632961
C615       C    0.6838284362    0.9789216206    0.6487493454
C616       C    0.7123030356    0.9622972361    0.6745984104
C617       C    0.7219272562    0.9268235039    0.6627480164
C618       C    0.7030768775    0.9079741563    0.6250485574
C619       C    0.6746022781    0.9245985409    0.5991994923
C620       C    0.6649780574    0.9600722731    0.6110498863
H621       H    0.6767040131    1.0051813964    0.6575217149
H622       H    0.7430043581    0.9145170709    0.6818810274
H623       H    0.7102013006    0.8817143806    0.6162761878
H624       H    0.6439009556    0.9723787061    0.5919168753
C605       C    0.6749009736    1.0416465139    0.8217431227
C606       C    0.7123039487    1.0376962348    0.8253964674
C607       C    0.7308568539    1.0525958970    0.8667489861
C608       C    0.7120067838    1.0714458383    0.9044481600
C609       C    0.6746038086    1.0753961174    0.9007948154
C610       C    0.6560509035    1.0604964552    0.8594422967
H611       H    0.6611670048    1.0306168939    0.7911315180
H612       H    0.7585429903    1.0496723859    0.8694544875
H613       H    0.7257407525    1.0824754583    0.9350597648
H614       H    0.6283647671    1.0634199663    0.8567367953
C595       C    0.9683123042    0.2799366633    0.6231277741
C596       C    0.9623008662    0.2877000902    0.6746030080
C597       C    0.9374394914    0.3143131564    0.6883786327
C598       C    0.9185895546    0.3331627956    0.6506790234
C599       C    0.9246009926    0.3253993687    0.5992037895
C600       C    0.9494623674    0.2987863025    0.5854281648
H601       H    0.9867161791    0.2602360818    0.6129302338
H602       H    0.9329890596    0.3200604596    0.7264808539
H603       H    0.9001856798    0.3528633771    0.6608765637
H604       H    0.9539127993    0.2930389993    0.5473259436
C585       C    1.0475444954    0.2703302354    0.8706210158
C586       C    1.0376981514    0.2877001677    0.8253972695
C587       C    1.0467016334    0.3239197612    0.8178732210
C588       C    1.0655514595    0.3427694226    0.8555729189
C589       C    1.0753978035    0.3253994904    0.9007966653
C590       C    1.0663943215    0.2891798968    0.9083207137
H591       H    1.0408795801    0.2435183285    0.8761907660
H592       H    1.0394136895    0.3367780696    0.7843985266
H593       H    1.0722163748    0.3695813295    0.8500031688
H594       H    1.0736822654    0.2763215884    0.9417954082
C575       C    0.3252731124   -0.0352371776    0.8279864224
C576       C    0.2876985067   -0.0376992640    0.8253988111
C577       C    0.2689738881   -0.0590110790    0.8605106696
C578       C    0.2878238751   -0.0778608076    0.8982101394
C579       C    0.3253984808   -0.0753987212    0.9007977506
C580       C    0.3441230994   -0.0540869062    0.8656858921
H581       H    0.3391341938   -0.0194608990    0.8019945271
H582       H    0.2411607059   -0.0608341810    0.8585964402
H583       H    0.2739627937   -0.0936370862    0.9242020346
H584       H    0.3719362816   -0.0522638042    0.8676001216
C565       C    0.2751595290    0.0376597880    0.6243219856
C566       C    0.2876990037    0.0376994376    0.6746015672
C567       C    0.3190882582    0.0565889407    0.6871815968
C568       C    0.3379380380    0.0754387942    0.6494820448
C569       C    0.3253985632    0.0753991447    0.5992024631
C570       C    0.2940093087    0.0565096416    0.5866224336
H571       H    0.2519233276    0.0236766493    0.6150094962
H572       H    0.3283709263    0.0566188870    0.7243987625
H573       H    0.3611742394    0.0894219329    0.6587945342
H574       H    0.2847266407    0.0564796953    0.5494052678
C555       C   -0.1180511827    1.0304858953    0.7665172482
C556       C   -0.0992004283    0.9999985476    0.7499987044
C557       C   -0.1180492858    0.9695106224    0.7334799833
C558       C   -0.1557488976    0.9695100450    0.7334798060
C559       C   -0.1745996520    0.9999973927    0.7499983498
C560       C   -0.1557507945    1.0304853178    0.7665170709
H561       H   -0.1040981324    1.0530548788    0.7787453925
H562       H   -0.1040966209    0.9469430312    0.7212524931
H563       H   -0.1697019479    0.9469410614    0.7212516617
H564       H   -0.1697034594    1.0530529091    0.7787445611
C545       C    0.0187182843    1.1180529157    0.7121693530
C546       C    0.0000002363    1.0992024977    0.7499993859
C547       C   -0.0187179796    1.1180516914    0.7878295906
C548       C   -0.0187181476    1.1557513032    0.7878297623
C549       C   -0.0000000996    1.1746017213    0.7499997294
C550       C    0.0187181163    1.1557525276    0.7121695247
H551       H    0.0325746259    1.1040996165    0.6841651755
H552       H   -0.0325736046    1.1040992755    0.8158324437
H553       H   -0.0325744892    1.1697046025    0.8158339398
H554       H    0.0325737413    1.1697049435    0.6841666716
C535       C    0.1180528528    1.0026855806    0.7039845233
C536       C    0.0992024038    0.9999998156    0.7499998647
C537       C    0.1180515667    0.9973139628    0.7960155242
C538       C    0.1557511786    0.9973138749    0.7960158424
C539       C    0.1746016275    0.9999996398    0.7500005010
C540       C    0.1557524647    1.0026854927    0.7039848415
H541       H    0.1040995764    1.0046738094    0.6699209832
H542       H    0.1040991279    0.9953258841    0.8300773726
H543       H    0.1697044550    0.9953256461    0.8300793825
H544       H    0.1697049035    1.0046735714    0.6699229931
C525       C    0.9770995830    0.8442478103    0.7829071765
C526       C    1.0000005051    0.8253975695    0.7499989460
C527       C    1.0229014788    0.8442469405    0.7170908049
C528       C    1.0229015303    0.8819465523    0.7170908943
C529       C    1.0000006082    0.9007967931    0.7499991248
C530       C    0.9770996345    0.8819474221    0.7829072659
H531       H    0.9601469142    0.8302943798    0.8072677485
H532       H    1.0398533847    0.8302946557    0.6927312081
H533       H    1.0398541992    0.8958999828    0.6927303222
H534       H    0.9601477286    0.8958997068    0.8072668626
C515       C    1.0686302808    0.7273516713    0.6527819577
C516       C    1.0376992412    0.7123020730    0.6746012439
C517       C    1.0256179623    0.6784025201    0.6587210601
C518       C    1.0444677231    0.6595525656    0.6210215901
C519       C    1.0753987627    0.6746021639    0.5992023038
C520       C    1.0874800416    0.7085017168    0.6150824877
H521       H    1.0775735651    0.7524461455    0.6645374185
H522       H    1.0027225344    0.6672617881    0.6748711157
H523       H    1.0355244388    0.6344580914    0.6092661293
H524       H    1.1103754695    0.7196424488    0.5989324321
C505       C    0.9772262627    0.7083069260    0.8740302158
C506       C    0.9623004754    0.7123014790    0.8253984823
C507       C    0.9285248213    0.6974462959    0.8144663313
C508       C    0.9096749545    0.6785965599    0.8521659137
C509       C    0.9246007417    0.6746020069    0.9007976472
C510       C    0.9583763959    0.6894571899    0.9117297982
H511       H    1.0022290197    0.7193036199    0.8821228470
H512       H    0.9174757377    0.7004025798    0.7784689491
H513       H    0.8846721975    0.6675998659    0.8440732824
H514       H    0.9694254795    0.6865009061    0.9477271804
C495       C    0.7729302288    0.4586085509    0.6258255882
C496       C    0.7876979473    0.4623013302    0.6746013237
C497       C    0.8213156663    0.4471443540    0.6856776299
C498       C    0.8401656668    0.4282945985    0.6479782006
C499       C    0.8253979483    0.4246018191    0.5992024651
C500       C    0.7917802293    0.4397587953    0.5881261589
H501       H    0.7480443849    0.4698286502    0.6176262446
H502       H    0.8322477429    0.4498772565    0.7217816065
H503       H    0.8650515107    0.4170744992    0.6561775441
H504       H    0.7808481527    0.4370258929    0.5520221823
C485       C    0.7884932041    0.5753877906    0.8246188451
C486       C    0.7876990545    0.5377005886    0.8253997017
C487       C    0.8057547199    0.5188631938    0.8638801216
C488       C    0.8246045349    0.5377130009    0.9015796849
C489       C    0.8253986845    0.5754002028    0.9007988282
C490       C    0.8073430191    0.5942375977    0.8623184083
H491       H    0.7751273220    0.5893323556    0.7961333394
H492       H    0.8051674646    0.4909666648    0.8644593268
H493       H    0.8379704170    0.5237684359    0.9300651905
H494       H    0.8079302744    0.6221341267    0.8617392032
C475       C    0.4405944165    0.2309813477    0.6399262213
C476       C    0.4623004526    0.2123013971    0.6746009081
C477       C    0.4651566808    0.1747714778    0.6715761861
C478       C    0.4463068728    0.1559215092    0.6338767772
C479       C    0.4246008367    0.1746014599    0.5992020905
C480       C    0.4217446085    0.2121313791    0.6022268125
H481       H    0.4384800657    0.2587632360    0.6421653013
H482       H    0.4812235020    0.1609434571    0.6972421702
H483       H    0.4484212236    0.1281396210    0.6316376973
H484       H    0.4056777873    0.2259593999    0.5765608283
C465       C    0.5382358851    0.1799424406    0.9056040936
C466       C    0.5753999620    0.1745999826    0.9007977981
C467       C    0.5937141364    0.1881074755    0.8582921708
C468       C    0.5748642338    0.2069574264    0.8205928389
C469       C    0.5377001568    0.2122998844    0.8253991344
C470       C    0.5193859825    0.1987923915    0.8679047618
H471       H    0.5246786392    0.1699433874    0.9370692982
H472       H    0.6212234336    0.1841534345    0.8547332228
H473       H    0.5884214797    0.2169564795    0.7891276343
H474       H    0.4918766852    0.2027464325    0.8714637098
C455       C    0.1592627366    0.5448549571    0.6216984687
C456       C    0.1746014771    0.5753995447    0.5992035171
C457       C    0.2087902163    0.5870943779    0.6144079978
C458       C    0.2276402149    0.5682446235    0.6521074301
C459       C    0.2123014744    0.5377000359    0.6746023817
C460       C    0.1781127352    0.5260052027    0.6593979010
H461       H    0.1339541894    0.5361977429    0.6104432038
H462       H    0.2201449794    0.6097037432    0.5977577957
H463       H    0.2529487621    0.5769018377    0.6633626950
H464       H    0.1667579720    0.5033958374    0.6760481031
C445       C    0.1879422691    0.4352170230    0.8116583751
C446       C    0.2122998066    0.4623013149    0.8253997024
C447       C    0.2178075301    0.4705358034    0.8768405976
C448       C    0.1989577160    0.4516860001    0.9145401655
C449       C    0.1746001784    0.4246017083    0.9007988382
C450       C    0.1690924550    0.4163672197    0.8493579430
H451       H    0.1838651231    0.4291213627    0.7735787514
H452       H    0.2358370672    0.4905837606    0.8870135072
H453       H    0.2030348620    0.4577816605    0.9526197892
H454       H    0.1510629179    0.3963192625    0.8391850334
C435       C    0.6180518104    0.4895194853    0.7062714306
C436       C    0.5992016929    0.5000003407    0.7499997631
C437       C    0.6180511873    0.5104811649    0.7937278845
C438       C    0.6557507992    0.5104811338    0.7937276733
C439       C    0.6746009166    0.5000002785    0.7499993408
C440       C    0.6557514222    0.4895194542    0.7062712194
H441       H    0.6040982885    0.4817609531    0.6739012628
H442       H    0.6040989939    0.5182393885    0.8260968247
H443       H    0.6697043210    0.5182396661    0.8260978411
H444       H    0.6697036156    0.4817612307    0.6739022793
C425       C    0.5172702685    0.3819468296    0.7108165231
C426       C    0.4999997283    0.4007969588    0.7499996889
C427       C    0.4827291114    0.3819474761    0.7891825575
C428       C    0.4827290348    0.3442478643    0.7891822602
C429       C    0.4999995750    0.3253977352    0.7499990943
C430       C    0.5172701919    0.3442472178    0.7108162258
H431       H    0.5300550109    0.3959003428    0.6818110230
H432       H    0.4699449724    0.3958996782    0.8181870376
H433       H    0.4699442924    0.3302943512    0.8181877603
H434       H    0.5300543309    0.3302950158    0.6818117456
C415       C    0.3819469559    0.4816743474    0.7882112185
C416       C    0.4007974228    0.5000008634    0.7499997553
C417       C    0.3819482778    0.5183276003    0.7117880732
C418       C    0.3442486659    0.5183278212    0.7117878543
C419       C    0.3253981991    0.5000013052    0.7499993175
C420       C    0.3442473441    0.4816745683    0.7882109996
H421       H    0.3959002191    0.4681078020    0.8164977884
H422       H    0.3959007298    0.5318934023    0.6835028747
H423       H    0.3302954028    0.5318943667    0.6835012845
H424       H    0.3302948920    0.4681087663    0.8164961981
C405       C    0.5641044328    0.7701477972    0.6457564504
C406       C    0.5376991805    0.7876978155    0.6746015331
C407       C    0.5301437923    0.8240975724    0.6657470331
C408       C    0.5489936564    0.8429473111    0.6280474506
C409       C    0.5753989087    0.8253972928    0.5992023679
C410       C    0.5829542969    0.7889975359    0.6080568679
H411       H    0.5696973825    0.7432025226    0.6523110803
H412       H    0.5105984793    0.8370891855    0.6870977806
H413       H    0.5434007067    0.8698925857    0.6214928207
H414       H    0.6024996100    0.7760059228    0.5867061204
C395       C    0.4763814096    0.8197747915    0.8451039569
C396       C    0.4623006565    0.7876993614    0.8253981449
C397       C    0.4293700806    0.7744737452    0.8433918814
C398       C    0.4105202578    0.7933235591    0.8810914299
C399       C    0.4246010108    0.8253989892    0.9007972420
C400       C    0.4575315868    0.8386246054    0.8828035055
H401       H    0.5007585892    0.8295651826    0.8317839182
H402       H    0.4189465151    0.7507312073    0.8288062787
H403       H    0.3861430782    0.7835331680    0.8944114686
H404       H    0.4679551523    0.8623671433    0.8973891082
C385       C    0.4728392489    0.6557527643    0.7756200723
C386       C    0.5000002217    0.6746027418    0.7499989882
C387       C    0.5271609714    0.6557531076    0.7243782288
C388       C    0.5271607483    0.6180534957    0.7243785535
C389       C    0.4999997756    0.5992035182    0.7499996375
C390       C    0.4728390259    0.6180531525    0.7756203969
H391       H    0.4527332394    0.6697063897    0.7945860889
H392       H    0.5472662864    0.6697051974    0.7054127827
H393       H    0.5472667579    0.6040998704    0.7054125368
H394       H    0.4527337109    0.6041010626    0.7945858431
C375       C    0.2280492054    0.5676535276    0.3488968202
C376       C    0.2122999217    0.5377008114    0.3253997979
C377       C    0.1777008339    0.5265979174    0.3396023347
C378       C    0.1588510298    0.5454477396    0.3773018938
C379       C    0.1746003135    0.5754004558    0.4007989161
C380       C    0.2091994013    0.5865033498    0.3865963793
H381       H    0.2536615171    0.5758725530    0.3383832540
H382       H    0.1660421752    0.5044266720    0.3222103718
H383       H    0.1332387181    0.5372287142    0.3878154600
H384       H    0.2208580600    0.6086745952    0.4039883422
C365       C    0.1780377028    0.4620766453    0.0959938488
C366       C    0.1746013196    0.4246026454    0.0992036233
C367       C    0.1900149713    0.4059783698    0.1401128241
C368       C    0.2088650060    0.4248280939    0.1778122505
C369       C    0.2123013892    0.4623020938    0.1746024760
C370       C    0.1968877375    0.4809263695    0.1336932752
H371       H    0.1666275970    0.4758634468    0.0657104144
H372       H    0.1874718605    0.3782396588    0.1424899824
H373       H    0.2202751118    0.4110412925    0.2080956849
H374       H    0.1994308483    0.5086650804    0.1313161169
C355       C    0.5444813988    0.7714640453    0.3725517074
C356       C    0.5376995214    0.7876984323    0.3253985677
C357       C    0.5497674873    0.8227826951    0.3159448943
C358       C    0.5686173306    0.8416325709    0.3536443605
C359       C    0.5753992080    0.8253981839    0.4007975002
C360       C    0.5633312421    0.7903139211    0.4102511736
H361       H    0.5355479695    0.7454925780    0.3795498813
H362       H    0.5447479476    0.8348004410    0.2810420087
H363       H    0.5775507599    0.8676040382    0.3466461867
H364       H    0.5683507818    0.7782961752    0.4451540592
C345       C    0.4490533451    0.8222639915    0.1847108908
C346       C    0.4623000873    0.7876999265    0.1746005146
C347       C    0.4566969959    0.7719856908    0.1267906161
C348       C    0.4378471623    0.7908355201    0.0890910938
C349       C    0.4246004200    0.8253995852    0.0992014700
C350       C    0.4302035114    0.8411138209    0.1470113685
H351       H    0.4532010881    0.8338966076    0.2201026339
H352       H    0.4665020101    0.7464009953    0.1193054385
H353       H    0.4336994193    0.7792029041    0.0536993507
H354       H    0.4203984972    0.8666985163    0.1544965461
C335       C    0.8053691508    0.4301272992    0.3132522901
C336       C    0.7876973274    0.4623018864    0.3253983327
C337       C    0.7888755191    0.4756267280    0.3752437998
C338       C    0.8077255343    0.4567769823    0.4129432243
C339       C    0.8253973577    0.4246023951    0.4007971817
C340       C    0.8242191659    0.4112775535    0.3509517146
H341       H    0.8044969829    0.4202634554    0.2763536976
H342       H    0.7757949356    0.4994426648    0.3842358348
H343       H    0.8085977022    0.4666408261    0.4498418168
H344       H    0.8372997495    0.3874616167    0.3419596796
C325       C    0.8235747737    0.5288903903    0.1639682144
C326       C    0.7876984513    0.5377000892    0.1746020580
C327       C    0.7706719476    0.5653595962    0.1475363432
C328       C    0.7895217663    0.5842094043    0.1098367848
C329       C    0.8253980887    0.5753997055    0.0992029411
C330       C    0.8424245924    0.5477401985    0.1262686559
H331       H    0.8361788089    0.5084151709    0.1840038734
H332       H    0.7441158824    0.5718813793    0.1554066200
H333       H    0.7769177311    0.6046846238    0.0898011258
H334       H    0.8689806576    0.5412184154    0.1183983792
C315       C    0.3819469947    0.5039598455    0.2958312212
C316       C    0.4007974038    0.5000006536    0.2500001079
C317       C    0.3819482012    0.4960413988    0.2041687413
C318       C    0.3442485893    0.4960413360    0.2041684878
C319       C    0.3253981801    0.5000005280    0.2499996011
C320       C    0.3442473828    0.5039597827    0.2958309677
H321       H    0.3959003005    0.5068907224    0.3297583367
H322       H    0.3959006106    0.4931106937    0.1702432637
H323       H    0.3302952835    0.4931104591    0.1702413722
H324       H    0.3302949734    0.5068904879    0.3297564453
C305       C    0.5094463415    0.6180538945    0.2058035438
C306       C    0.4999997077    0.5992036018    0.2500005193
C307       C    0.4905532950    0.6180529209    0.2941976646
C308       C    0.4905535160    0.6557525327    0.2941978345
C309       C    0.5000001497    0.6746028254    0.2500008591
C310       C    0.5094465625    0.6557535063    0.2058037137
H311       H    0.5164391406    0.6041005025    0.1730861765
H312       H    0.4835606313    0.6041005977    0.3269135075
H313       H    0.4835607169    0.6697059247    0.3269152019
H314       H    0.5164392262    0.6697058295    0.1730878708
C295       C    0.6180517018    0.5121865407    0.2928359435
C296       C    0.5992016094    0.5000003950    0.2500006605
C297       C    0.6180511288    0.4878142066    0.2071656766
C298       C    0.6557507406    0.4878141640    0.2071659756
C299       C    0.6746008331    0.5000003097    0.2500012587
C300       C    0.6557513136    0.5121864981    0.2928362426
H301       H    0.6040981614    0.5212074854    0.3245449576
H302       H    0.6040989539    0.4787936792    0.1754577967
H303       H    0.6697042810    0.4787932193    0.1754569616
H304       H    0.6697034885    0.5212070255    0.3245441224
C285       C    0.4246288101    0.2134677987    0.3265921603
C286       C    0.4623009266    0.2123019362    0.3253978950
C287       C    0.4811232425    0.1922861279    0.3619030686
C288       C    0.4622734419    0.1734361822    0.3996025076
C289       C    0.4246013254    0.1746020447    0.4007967729
C290       C    0.4057790095    0.1946178529    0.3642915993
H291       H    0.4106954075    0.2282846957    0.2995688500
H292       H    0.5090086049    0.1914225272    0.3610202329
H293       H    0.4762068446    0.1586192852    0.4266258179
H294       H    0.3778936471    0.1954814537    0.3651744350
C275       C    0.5700436898    0.1949038943    0.1866412114
C276       C    0.5376996098    0.2123004013    0.1746010602
C277       C    0.5242053548    0.2108470745    0.1248613825
C278       C    0.5430551798    0.1919972406    0.0871618560
C279       C    0.5753992598    0.1746007336    0.0992020073
C280       C    0.5888935148    0.1760540604    0.1489416850
H281       H    0.5800329434    0.1959797336    0.2234614923
H282       H    0.5002639548    0.2237238611    0.1159477312
H283       H    0.5330659262    0.1909214012    0.0503415751
H284       H    0.6128349149    0.1631772737    0.1578553362
C265       C    0.5304901153    0.3442480122    0.2665085999
C266       C    0.4999995040    0.3253977864    0.2500009008
C267       C    0.4695089684    0.3442471724    0.2334930259
C268       C    0.4695090441    0.3819467843    0.2334928501
C269       C    0.4999996554    0.4007970100    0.2500005492
C270       C    0.5304901910    0.3819476240    0.2665084241
H271       H    0.5530610313    0.3302945706    0.2787287151
H272       H    0.4469389613    0.3302948989    0.2212735633
H273       H    0.4469381281    0.3959002259    0.2212727349
H274       H    0.5530601981    0.3958998976    0.2787278867
loop_
_geom_bond_atom_site_label_1
_geom_bond_atom_site_label_2
_geom_bond_distance
_geom_bond_site_symmetry_2
_ccdc_geom_bond_type
C510       H514 1.140       .   S
C507       H512 1.140       .   S
C508       H513 1.140       .   S
C505       H511 1.140       .   S
C690       H694 1.140       .   S
C445       H451 1.140       .   S
C685       H691 1.140       .   S
C688       H693 1.140       .   S
C687       H692 1.140       .   S
C249       C499 1.540       .   S
O242       C249 1.251       .   A
O239       C249 1.250       .   A
O49        Cu54 1.951       .   S
O51        Cu54 1.951       .   S
O50        Cu54 1.951       .   S
Cu53       Cu54 2.630       .   S
O52        Cu54 1.951       .   S
O48        Cu53 1.951       .   S
O45        Cu53 1.951       .   S
O46        Cu53 1.951       .   S
O47        Cu53 1.951       .   S
C567       C568 1.540       .   A
C566       C567 1.540       .   A
C567       H572 1.140       .   S
O238      Cu245 1.951       .   S
O238       C248 1.250       .   A
O239      Cu245 1.951       .   S
O237      Cu245 1.951       .   S
O237       C247 1.250       .   A
C568       C569 1.540       .   A
C568       H573 1.140       .   S
C569       C570 1.540       .   A
C569       C234 1.540       .   S
C247       C599 1.540       .   S
O244       C247 1.250       .   A
O230       C233 1.250       .   A
O230      Cu232 1.951       .   S
C295       C296 1.540       .   A
C295       H301 1.140       .   S
C295       C300 1.540       .   A
C376       C377 1.540       .   A
C375       C376 1.540       .   A
C376        C33 1.540       .   S
C457       H462 1.140       .   S
C458       H463 1.140       .   S
C455       H461 1.140       .   S
C326        C21 1.540       .   S
C325       C326 1.540       .   A
C326       C327 1.540       .   A
C460       H464 1.140       .   S
C338       H343 1.140       .   S
C337       H342 1.140       .   S
C335       H341 1.140       .   S
C327       C328 1.540       .   A
C327       H332 1.140       .   S
C340       H344 1.140       .   S
C328       C329 1.540       .   A
C328       H333 1.140       .   S
C329       C330 1.540       .   A
C329       C192 1.540       .   S
O52         C55 1.250       .   A
O51         C56 1.250       .   A
O50         C57 1.251       .   A
C479       C480 1.540       .   A
C236       C479 1.540       .   S
C478       C479 1.540       .   A
N98         C99 1.540       .   A
C97         N98 1.540       .   A
C296       C297 1.540       .   A
C297       C298 1.540       .   A
C297       H302 1.140       .   S
C113       N114 1.540       .   A
C109       N114 1.540       .   A
N116       C117 1.540       .   A
C115       N116 1.540       .   A
C665       C666 1.540       .   A
C666       C134 1.540       .   S
C666       C667 1.540       .   A
C109       N110 1.540       .   A
N110       C111 1.540       .   A
O167      Cu175 1.951       .   S
O167       C177 1.250       .   A
N112       C113 1.540       .   A
C111       N112 1.540       .   A
C480       H484 1.140       .   S
O168      Cu175 1.951       .   S
O168       C178 1.250       .   A
O169      Cu175 1.951       .   S
O169       C179 1.250       .   A
C117       N118 1.540       .   A
N118       C119 1.540       .   A
C668       H673 1.140       .   S
C667       C668 1.540       .   A
C668       C669 1.540       .   A
C735       C740 1.540       .   A
C740       H744 1.140       .   S
C739       C740 1.540       .   A
C41        C386 1.540       .   S
N40         C41 1.540       .   A
C41         N42 1.540       .   A
N42         C43 1.540       .   A
C43         N44 1.540       .   A
C43        C406 1.540       .   S
C640       H644 1.140       .   S
C637       H642 1.140       .   S
C638       H643 1.140       .   S
C635       H641 1.140       .   S
C589       C590 1.540       .   A
C590       H594 1.140       .   S
C585       C590 1.540       .   A
O213      Cu218 1.951       .   S
O214      Cu218 1.951       .   S
O215      Cu218 1.951       .   S
O216      Cu218 1.951       .   S
Cu217     Cu218 2.630       .   S
C596       C107 1.540       .   S
C596       C597 1.540       .   A
C595       C596 1.540       .   A
C595       C600 1.540       .   A
C595       H601 1.140       .   S
C599       C600 1.540       .   A
C598       C599 1.540       .   A
O210      Cu217 1.951       .   S
O211      Cu217 1.951       .   S
O209      Cu217 1.951       .   S
O212      Cu217 1.951       .   S
C285       H291 1.140       .   S
C288       H293 1.140       .   S
C287       H292 1.140       .   S
C290       H294 1.140       .   S
C698       H703 1.140       .   S
C698       C699 1.540       .   A
C697       C698 1.540       .   A
C699       C135 1.540       .   S
C699       C700 1.540       .   A
C348       H353 1.140       .   S
C348       C349 1.540       .   A
C347       C348 1.540       .   A
C349       C350 1.540       .   A
C349       C208 1.540   1_554   S
C310       H314 1.140       .   S
C305       C310 1.540       .   A
C309       C310 1.540       .   A
C689       C690 1.540       .   A
C685       C690 1.540       .   A
C339       C340 1.540       .   A
C335       C340 1.540       .   A
C346       C347 1.540       .   A
C346        C27 1.540       .   S
C345       C346 1.540       .   A
C695       C700 1.540       .   A
C695       H701 1.140       .   S
C695       C696 1.540       .   A
C696       C261 1.540       .   S
C696       C697 1.540       .   A
C697       H702 1.140       .   S
C488       H493 1.140       .   S
C487       H492 1.140       .   S
C485       H491 1.140       .   S
C490       H494 1.140       .   S
C617       C618 1.540       .   A
C617       H622 1.140       .   S
C616       C617 1.540       .   A
C615       C620 1.540       .   A
C615       H621 1.140       .   S
C615       C616 1.540       .   A
C618       C619 1.540       .   A
C619       C620 1.540       .   A
C619       C263 1.540       .   S
C316        C20 1.540       .   S
C315       C316 1.540       .   A
C316       C317 1.540       .   A
C369        C37 1.540       .   S
C368       C369 1.540       .   A
C369       C370 1.540       .   A
C526       C527 1.540       .   A
C525       C526 1.540       .   A
C526        C81 1.540       .   S
C527       H532 1.140       .   S
C527       C528 1.540       .   A
C525       C530 1.540       .   A
C525       H531 1.140       .   S
C519       C520 1.540       .   A
C515       C520 1.540       .   A
C520       H524 1.140       .   S
C287       C288 1.540       .   A
C288       C289 1.540       .   A
C286       C287 1.540       .   A
C286         C3 1.540       .   S
C285       C286 1.540       .   A
C285       C290 1.540       .   A
C555       C560 1.540       .   A
C560       H564 1.140       .   S
C559       C560 1.540       .   A
C528       H533 1.140       .   S
C528       C529 1.540       .   A
C529       C530 1.540       .   A
C529        C94 1.540   1_655   S
C248       C339 1.540       .   S
O243       C248 1.250       .   A
C449       C450 1.540       .   A
C449       C165 1.540   1_556   S
C448       C449 1.540       .   A
C448       H453 1.140       .   S
C447       C448 1.540       .   A
C119       C646 1.540       .   S
C119       N120 1.540       .   A
C117       C626 1.540       .   S
C566        C97 1.540       .   S
C565       C566 1.540       .   A
C115       C636 1.540       .   S
C115       N120 1.540       .   A
O172       C179 1.251       .   A
O172      Cu176 1.951       .   S
C113       C559 1.540   1_655   S
Cu15       Cu16 2.630       .   S
O14        Cu16 1.951       .   S
O13        Cu16 1.951       .   S
O12        Cu16 1.951       .   S
O11        Cu16 1.951       .   S
O7         Cu15 1.951       .   S
O10        Cu15 1.951       .   S
O9         Cu15 1.951       .   S
O8         Cu15 1.951       .   S
O88        Cu92 1.951       .   S
O88         C95 1.251       .   A
O89        Cu92 1.951       .   S
O89         C94 1.250       .   A
O84        Cu91 1.951       .   S
O84         C94 1.250       .   A
O85        Cu91 1.951       .   S
O85         C95 1.250       .   A
O86        Cu91 1.951       .   S
O86         C96 1.250       .   A
O87        Cu92 1.951       .   S
O87         C96 1.250       .   A
O83         C93 1.250       .   A
O83        Cu91 1.951       .   S
C628       C629 1.540       .   A
C628       H633 1.140       .   S
C627       C628 1.540       .   A
C420       H424 1.140       .   S
C417       H422 1.140       .   S
C418       H423 1.140       .   S
C478       H483 1.140       .   S
C415       H421 1.140       .   S
C380       H384 1.140       .   S
C378       H383 1.140       .   S
C377       H382 1.140       .   S
C375       H381 1.140       .   S
O14         C17 1.250       .   A
O13         C18 1.250       .   A
O12         C19 1.251       .   A
O11         C20 1.250       .   A
O10         C20 1.250       .   A
C540       H544 1.140       .   S
C535       H541 1.140       .   S
C538       H543 1.140       .   S
C537       H542 1.140       .   S
O223       C233 1.250       .   A
C233       C289 1.540       .   S
O227       C236 1.250       .   A
O226       C236 1.250       .   A
O229       C234 1.250       .   A
O224       C234 1.250       .   A
O228       C235 1.251       .   A
O225       C235 1.250       .   A
C235       C729 1.540       .   S
O126      Cu130 1.951       .   S
O126       C133 1.251       .   A
O127      Cu130 1.951       .   S
O127       C132 1.250       .   A
O124       C134 1.250       .   A
O124      Cu129 1.951       .   S
O125      Cu130 1.951       .   S
O125       C134 1.250       .   A
O122      Cu129 1.951       .   S
O122       C132 1.250       .   A
O123      Cu129 1.951       .   S
O123       C133 1.250       .   A
O121      Cu129 1.951       .   S
O121       C131 1.250       .   A
C657       H662 1.140       .   S
O128      Cu130 1.951       .   S
O128       C131 1.250       .   A
C629       C166 1.540   1_655   S
C629       C630 1.540       .   A
C149       N150 1.540       .   A
N150       C151 1.540       .   A
C658       H663 1.140       .   S
Cu175     Cu176 2.630       .   S
O170      Cu175 1.951       .   S
C620       H624 1.140       .   S
C151       N152 1.540       .   A
C147       N152 1.540       .   A
O174      Cu176 1.951       .   S
O171      Cu176 1.951       .   S
O173      Cu176 1.951       .   S
C625       H631 1.140       .   S
C625       C630 1.540       .   A
C625       C626 1.540       .   A
C627       H632 1.140       .   S
C626       C627 1.540       .   A
C325       H331 1.140       .   S
C330       H334 1.140       .   S
C39         N40 1.540       .   A
C39         N44 1.540       .   A
O197      Cu203 1.951       .   S
O197       C207 1.250       .   A
O196      Cu203 1.951       .   S
O196       C206 1.250       .   A
O195      Cu203 1.951       .   S
O195       C205 1.250       .   A
C565       C570 1.540       .   A
C565       H571 1.140       .   S
O199       C208 1.250       .   A
O199      Cu204 1.951       .   S
O198      Cu203 1.951       .   S
O198       C208 1.250       .   A
C457       C458 1.540       .   A
C456       C457 1.540       .   A
C577       H582 1.140       .   S
C715       H721 1.140       .   S
O254      Cu259 1.951       .   S
Cu259     Cu260 2.630       .   S
O251      Cu259 1.951       .   S
O252      Cu259 1.951       .   S
O253      Cu259 1.951       .   S
C718       H723 1.140       .   S
C717       H722 1.140       .   S
C720       H724 1.140       .   S
C715       C716 1.540       .   A
C715       C720 1.540       .   A
C716       C717 1.540       .   A
C717       C718 1.540       .   A
C716       C143 1.540       .   S
C709       C710 1.540       .   A
C710       H714 1.140       .   S
C705       C710 1.540       .   A
C497       C498 1.540       .   A
C498       H503 1.140       .   S
C498       C499 1.540       .   A
C499       C500 1.540       .   A
C496       C497 1.540       .   A
C495       C496 1.540       .   A
C496        C75 1.540       .   S
C497       H502 1.140       .   S
C495       C500 1.540       .   A
C495       H501 1.140       .   S
C719       C720 1.540       .   A
C718       C719 1.540       .   A
C220       C719 1.540   1_455   S
C489       C490 1.540       .   A
C485       C490 1.540       .   A
C509       C510 1.540       .   A
C505       C510 1.540       .   A
C657       C658 1.540       .   A
C658       C659 1.540       .   A
C659       C151 1.540   1_655   S
C659       C660 1.540       .   A
C307       C308 1.540       .   A
C308       H313 1.140       .   S
C308       C309 1.540       .   A
C309        C29 1.540       .   S
C306       C307 1.540       .   A
C305       C306 1.540       .   A
C306        C18 1.540       .   S
C655       H661 1.140       .   S
C655       C656 1.540       .   A
C655       C660 1.540       .   A
C656       C657 1.540       .   A
C133       C656 1.540       .   S
C645       C650 1.540       .   A
C650       H654 1.140       .   S
C649       C650 1.540       .   A
C300       H304 1.140       .   S
C299       C300 1.540       .   A
C516        C79 1.540       .   S
C516       C517 1.540       .   A
C515       C516 1.540       .   A
C610       H614 1.140       .   S
C605       H611 1.140       .   S
C608       H613 1.140       .   S
C607       H612 1.140       .   S
C587       H592 1.140       .   S
C588       H593 1.140       .   S
C585       H591 1.140       .   S
C39        C396 1.540       .   S
C319        C35 1.540       .   S
N34         C35 1.540       .   A
C35         N36 1.540       .   A
C37         N38 1.540       .   A
N36         C37 1.540       .   A
N30         C31 1.540       .   A
C31         N32 1.540       .   A
C31        C356 1.540       .   S
C33         N38 1.540       .   A
C33         N34 1.540       .   A
C399       C400 1.540       .   A
C400       H404 1.140       .   S
C395       C400 1.540       .   A
C405       H411 1.140       .   S
C405       C410 1.540       .   A
C405       C406 1.540       .   A
C407       C408 1.540       .   A
C407       H412 1.140       .   S
C406       C407 1.540       .   A
C408       C409 1.540       .   A
C262       C409 1.540       .   S
C409       C410 1.540       .   A
C408       H413 1.140       .   S
C645       H651 1.140       .   S
C395       H401 1.140       .   S
C395       C396 1.540       .   A
C397       C398 1.540       .   A
C397       H402 1.140       .   S
C396       C397 1.540       .   A
C398       C399 1.540       .   A
C205       C399 1.540       .   S
C398       H403 1.140       .   S
C648       H653 1.140       .   S
O258       C261 1.250       .   A
O258      Cu260 1.951       .   S
O254       C264 1.250       .   A
O255      Cu260 1.951       .   S
O255       C264 1.250       .   A
O256      Cu260 1.951       .   S
O256       C263 1.251       .   A
O257      Cu260 1.951       .   S
O257       C262 1.250       .   A
O251       C261 1.250       .   A
O252       C262 1.250       .   A
O253       C263 1.250       .   A
C500       H504 1.140       .   S
C445       C450 1.540       .   A
C450       H454 1.140       .   S
C598       H603 1.140       .   S
C597       C598 1.540       .   A
C276       C277 1.540       .   A
C276         C1 1.540       .   S
C275       C276 1.540       .   A
C277       H282 1.140       .   S
C277       C278 1.540       .   A
C275       H281 1.140       .   S
C275       C280 1.540       .   A
C269       C270 1.540       .   A
C270       H274 1.140       .   S
C265       C270 1.540       .   A
C278       H283 1.140       .   S
C278       C279 1.540       .   A
C177       C279 1.540   1_556   S
C279       C280 1.540       .   A
O229      Cu232 1.951       .   S
O228      Cu232 1.951       .   S
C475       C476 1.540       .   A
C476       C477 1.540       .   A
C476        C69 1.540       .   S
C477       C478 1.540       .   A
C477       H482 1.140       .   S
C579       C580 1.540       .   A
C207       C579 1.540   1_565   S
C578       C579 1.540       .   A
C577       C578 1.540       .   A
C578       H583 1.140       .   S
C575       C580 1.540       .   A
C575       H581 1.140       .   S
C575       C576 1.540       .   A
O223      Cu231 1.951       .   S
C576       C577 1.540       .   A
C101       C576 1.540       .   S
O225      Cu231 1.951       .   S
O224      Cu231 1.951       .   S
O227      Cu232 1.951       .   S
O226      Cu231 1.951       .   S
Cu129     Cu130 2.630       .   S
C370       H374 1.140       .   S
C367       H372 1.140       .   S
C368       H373 1.140       .   S
C365       H371 1.140       .   S
C570       H574 1.140       .   S
C446       C447 1.540       .   A
C447       H452 1.140       .   S
C470       H474 1.140       .   S
C465       H471 1.140       .   S
C468       H473 1.140       .   S
C467       H472 1.140       .   S
O48         C58 1.250       .   A
O49         C58 1.250       .   A
O45         C55 1.250       .   A
O46         C56 1.250       .   A
O47         C57 1.250       .   A
C609       C610 1.540       .   A
C605       C610 1.540       .   A
C105       N106 1.540       .   A
N106       C107 1.540       .   A
N104       C105 1.540       .   A
C103       N104 1.540       .   A
C97        N102 1.540       .   A
C101       N102 1.540       .   A
C109       C616 1.540       .   S
C99        N100 1.540       .   A
N100       C101 1.540       .   A
C618       H623 1.140       .   S
O174       C177 1.250       .   A
O171       C180 1.250       .   A
O170       C180 1.250       .   A
O173       C178 1.250       .   A
C107       N108 1.540       .   A
C103       N108 1.540       .   A
C366       C367 1.540       .   A
C367       C368 1.540       .   A
C530       H534 1.140       .   S
N78         C79 1.540       .   A
C79         N80 1.540       .   A
C705       H711 1.140       .   S
C707       H712 1.140       .   S
C708       H713 1.140       .   S
C71         N76 1.540       .   A
C71         N72 1.540       .   A
C486        C71 1.540       .   S
C359       C360 1.540       .   A
C358       C359 1.540       .   A
C264       C359 1.540       .   S
C73         N74 1.540       .   A
C73        C439 1.540       .   S
N72         C73 1.540       .   A
C647       H652 1.140       .   S
N74         C75 1.540       .   A
C75         N76 1.540       .   A
C77         N78 1.540       .   A
C506        C77 1.540       .   S
C77         N82 1.540       .   A
Cu91       Cu92 2.630       .   S
O90        Cu92 1.951       .   S
C390       H394 1.140       .   S
C385       C390 1.540       .   A
C389       C390 1.540       .   A
C355       H361 1.140       .   S
C355       C356 1.540       .   A
C355       C360 1.540       .   A
C356       C357 1.540       .   A
C357       C358 1.540       .   A
C357       H362 1.140       .   S
C727       C728 1.540       .   A
C728       C729 1.540       .   A
C728       H733 1.140       .   S
C729       C730 1.540       .   A
C725       C726 1.540       .   A
C725       H731 1.140       .   S
C725       C730 1.540       .   A
C726       C727 1.540       .   A
C149       C726 1.540       .   S
C727       H732 1.140       .   S
C358       H363 1.140       .   S
C688       C689 1.540       .   A
C689       C180 1.540   1_564   S
C687       C688 1.540       .   A
C679       C680 1.540       .   A
C680       H684 1.140       .   S
C675       C680 1.540       .   A
C686       C687 1.540       .   A
C686       C137 1.540       .   S
C685       C686 1.540       .   A
N80         C81 1.540       .   A
C81         N82 1.540       .   A
C665       C670 1.540       .   A
C665       H671 1.140       .   S
C535       C540 1.540       .   A
C535       C536 1.540       .   A
C537       C538 1.540       .   A
C536       C537 1.540       .   A
C95        C536 1.540       .   S
C538       C539 1.540       .   A
C99        C539 1.540   1_545   S
C539       C540 1.540       .   A
C667       H672 1.140       .   S
C438       C439 1.540       .   A
C438       H443 1.140       .   S
C437       C438 1.540       .   A
C439       C440 1.540       .   A
C556       C557 1.540       .   A
C555       C556 1.540       .   A
C556        C96 1.540       .   S
C307       H312 1.140       .   S
C429       C430 1.540       .   A
C430       H434 1.140       .   S
C425       C430 1.540       .   A
C435       C440 1.540       .   A
C435       C436 1.540       .   A
C435       H441 1.140       .   S
C58        C436 1.540       .   S
C436       C437 1.540       .   A
C660       H664 1.140       .   S
C305       H311 1.140       .   S
C425       H431 1.140       .   S
C428       H433 1.140       .   S
C458       C459 1.540       .   A
C459        C63 1.540       .   S
C459       C460 1.540       .   A
C93        C546 1.540       .   S
O90         C93 1.250       .   A
C669       C670 1.540       .   A
C669       C139 1.540   1_545   S
C555       H561 1.140       .   S
C338       C339 1.540       .   A
O210       C220 1.250       .   A
O211       C221 1.250       .   A
O212       C222 1.250       .   A
O213       C222 1.250       .   A
O214       C221 1.251       .   A
O215       C220 1.250       .   A
O216       C219 1.250       .   A
C221       C519 1.540   1_455   S
C379       C222 1.540       .   S
N148       C149 1.540       .   A
C147       N148 1.540       .   A
C141       N142 1.540       .   A
N142       C143 1.540       .   A
C135       N140 1.540       .   A
C139       N140 1.540       .   A
O157      Cu162 1.951       .   S
O160      Cu162 1.951       .   S
Cu161     Cu162 2.630       .   S
O159      Cu162 1.951       .   S
O158      Cu162 1.951       .   S
C141       N146 1.540       .   A
C145       N146 1.540       .   A
O156      Cu161 1.951       .   S
O155      Cu161 1.951       .   S
O154      Cu161 1.951       .   S
O153      Cu161 1.951       .   S
C440       H444 1.140       .   S
C437       H442 1.140       .   S
C320       H324 1.140       .   S
C315       H321 1.140       .   S
C318       H323 1.140       .   S
C317       H322 1.140       .   S
C268       C269 1.540       .   A
C268       H273 1.140       .   S
C267       C268 1.540       .   A
C488       C489 1.540       .   A
C489       C193 1.540   1_556   S
C487       C488 1.540       .   A
C636       C637 1.540       .   A
C637       C638 1.540       .   A
C475       C480 1.540       .   A
C485       C486 1.540       .   A
C486       C487 1.540       .   A
C319       C320 1.540       .   A
C318       C319 1.540       .   A
C466       C467 1.540       .   A
C467       C468 1.540       .   A
C131       C649 1.540       .   S
C648       C649 1.540       .   A
C647       C648 1.540       .   A
C646       C647 1.540       .   A
C645       C646 1.540       .   A
C315       C320 1.540       .   A
C317       C318 1.540       .   A
C635       C640 1.540       .   A
C639       C640 1.540       .   A
N28         C29 1.540       .   A
C27         N28 1.540       .   A
C630       H634 1.140       .   S
N22         C23 1.540       .   A
C21         N22 1.540       .   A
C21         N26 1.540       .   A
C25         N26 1.540       .   A
C23         N24 1.540       .   A
N24         C25 1.540       .   A
C299        C23 1.540       .   S
C27         N32 1.540       .   A
C336        C25 1.540       .   S
C29         N30 1.540       .   A
C580       H584 1.140       .   S
Cu231     Cu232 2.630       .   S
C298       H303 1.140       .   S
C738       H743 1.140       .   S
C737       H742 1.140       .   S
C735       H741 1.140       .   S
O157       C166 1.250       .   A
O156       C166 1.250       .   A
C366       C164 1.540       .   S
O154       C164 1.250       .   A
O159       C164 1.250       .   A
O155       C165 1.250       .   A
O158       C165 1.251       .   A
C589       C163 1.540   1_656   S
O160       C163 1.250       .   A
O153       C163 1.250       .   A
C469        C65 1.540       .   S
C469       C470 1.540       .   A
C468       C469 1.540       .   A
C365       C366 1.540       .   A
C365       C370 1.540       .   A
C507       C508 1.540       .   A
C506       C507 1.540       .   A
C360       H364 1.140       .   S
O244      Cu246 1.951       .   S
O243      Cu246 1.951       .   S
O242      Cu246 1.951       .   S
O241       C250 1.250       .   A
O241      Cu246 1.951       .   S
O240       C250 1.250       .   A
O240      Cu245 1.951       .   S
C265       H271 1.140       .   S
C265       C266 1.540       .   A
C267       H272 1.140       .   S
C266       C267 1.540       .   A
C266         C5 1.540       .   S
C17        C269 1.540       .   S
C179       C466 1.540       .   S
C465       C466 1.540       .   A
C508       C509 1.540       .   A
C509       C191 1.540   1_556   S
C465       C470 1.540       .   A
C455       C460 1.540       .   A
C505       C506 1.540       .   A
O185       C194 1.250       .   A
O185      Cu190 1.951       .   S
C558       H563 1.140       .   S
C557       H562 1.140       .   S
C597       H602 1.140       .   S
O209       C219 1.250       .   A
C456       C219 1.540       .   S
C600       H604 1.140       .   S
C135       N136 1.540       .   A
N136       C137 1.540       .   A
C606       C607 1.540       .   A
C111       C606 1.540       .   S
C605       C606 1.540       .   A
O188      Cu190 1.951       .   S
Cu189     Cu190 2.630       .   S
O186      Cu190 1.951       .   S
O187      Cu190 1.951       .   S
C137       N138 1.540       .   A
N138       C139 1.540       .   A
C608       C609 1.540       .   A
C607       C608 1.540       .   A
N66         C67 1.540       .   A
C65         N66 1.540       .   A
C63         N64 1.540       .   A
C59         N64 1.540       .   A
N62         C63 1.540       .   A
C61         N62 1.540       .   A
C59         N60 1.540       .   A
N60         C61 1.540       .   A
C67         N68 1.540       .   A
N68         C69 1.540       .   A
C347       H352 1.140       .   S
N2           C3 1.540       .   A
C3           N4 1.540       .   A
C1           N2 1.540       .   A
C1           N6 1.540       .   A
N4           C5 1.540       .   A
C5           N6 1.540       .   A
C69         N70 1.540       .   A
C429        C67 1.540       .   S
C65         N70 1.540       .   A
C419        C61 1.540       .   S
C325       C330 1.540       .   A
C739       C147 1.540       .   S
C738       C739 1.540       .   A
C737       C738 1.540       .   A
C736       C737 1.540       .   A
C736       C206 1.540   1_544   S
C735       C736 1.540       .   A
C730       H734 1.140       .   S
C427       H432 1.140       .   S
C289       C290 1.540       .   A
C296        C19 1.540       .   S
O9          C19 1.250       .   A
O8          C18 1.250       .   A
O7          C17 1.250       .   A
C132       C676 1.540       .   S
C428       C429 1.540       .   A
C427       C428 1.540       .   A
C415       C420 1.540       .   A
C419       C420 1.540       .   A
C426       C427 1.540       .   A
C56        C426 1.540       .   S
C425       C426 1.540       .   A
C677       H682 1.140       .   S
C678       H683 1.140       .   S
C675       H681 1.140       .   S
C518       H523 1.140       .   S
C517       H522 1.140       .   S
C515       H521 1.140       .   S
C557       C558 1.540       .   A
O202       C205 1.250       .   A
O202      Cu204 1.951       .   S
O201       C206 1.250       .   A
O201      Cu204 1.951       .   S
O200       C207 1.251       .   A
O200      Cu204 1.951       .   S
C545       C550 1.540       .   A
C549       C550 1.540       .   A
C550       H554 1.140       .   S
C250       C639 1.540       .   S
C345       H351 1.140       .   S
C345       C350 1.540       .   A
C558       C559 1.540       .   A
C337       C338 1.540       .   A
C545       C546 1.540       .   A
C545       H551 1.140       .   S
C350       H354 1.140       .   S
C546       C547 1.540       .   A
C547       H552 1.140       .   S
C547       C548 1.540       .   A
C678       C679 1.540       .   A
C677       C678 1.540       .   A
C679       C145 1.540   1_545   S
C548       H553 1.140       .   S
C548       C549 1.540       .   A
C670       H674 1.140       .   S
C676       C677 1.540       .   A
C675       C676 1.540       .   A
C57        C416 1.540       .   S
C55        C389 1.540       .   S
C446        C59 1.540       .   S
Cu203     Cu204 2.630       .   S
C585       C586 1.540       .   A
C586       C105 1.540       .   S
C586       C587 1.540       .   A
C588       C589 1.540       .   A
C587       C588 1.540       .   A
C178       C609 1.540   1_545   S
C280       H284 1.140       .   S
C475       H481 1.140       .   S
C379       C380 1.540       .   A
C378       C379 1.540       .   A
C377       C378 1.540       .   A
C375       C380 1.540       .   A
C709       C194 1.540       .   S
O184       C194 1.250       .   A
O183       C193 1.250       .   A
O186       C193 1.251       .   A
O182       C192 1.250       .   A
O187       C192 1.250       .   A
O188       C191 1.250       .   A
O181       C191 1.250       .   A
C298       C299 1.540       .   A
C518       C519 1.540       .   A
C517       C518 1.540       .   A
C455       C456 1.540       .   A
C103       C549 1.540   1_645   S
C385       H391 1.140       .   S
C387       H392 1.140       .   S
C388       H393 1.140       .   S
C410       H414 1.140       .   S
C143       N144 1.540       .   A
N144       C145 1.540       .   A
C416       C417 1.540       .   A
C417       C418 1.540       .   A
C445       C446 1.540       .   A
C415       C416 1.540       .   A
C638       C639 1.540       .   A
C635       C636 1.540       .   A
O181      Cu189 1.951       .   S
O182      Cu189 1.951       .   S
O183      Cu189 1.951       .   S
O184      Cu189 1.951       .   S
Cu245     Cu246 2.630       .   S
C708       C709 1.540       .   A
C707       C708 1.540       .   A
C336       C337 1.540       .   A
C335       C336 1.540       .   A
C700       H704 1.140       .   S
C706       C141 1.540       .   S
C706       C707 1.540       .   A
C705       C706 1.540       .   A
C418       C419 1.540       .   A
C386       C387 1.540       .   A
C385       C386 1.540       .   A
C387       C388 1.540       .   A
C388       C389 1.540       .   A
