data_fjh_v1-3c_B_Ch_v2-4c_Cu_1_Ch_v3-4c_Cu_1_Ch_1B_4H_Ch
_audit_creation_date              2020-02-03
_audit_creation_method            'tobacco_3.0'
_symmetry_space_group_name_H-M    'P1'
_symmetry_Int_Tables_number       1
_symmetry_cell_setting            triclinic
loop_
_symmetry_equiv_pos_as_xyz
  x,y,z
_cell_length_a                    40.849706548534506
_cell_length_b                    40.849706581517935
_cell_length_c                    28.8851338834339
_cell_angle_alpha                 89.99999999584274
_cell_angle_beta                  90.00000000415697
_cell_angle_gamma                 89.99999999353604
loop_
_atom_site_label
_atom_site_type_symbol
_atom_site_fract_x
_atom_site_fract_y
_atom_site_fract_z
C1         C    0.5188496191    0.2311504009    0.2123009181
C2         C    0.5000005717    0.2123025082    0.2499989233
C3         C    0.4811509527    0.2311521073    0.2876980053
C4         C    0.4811503809    0.2688495991    0.2876990819
C5         C    0.4999994283    0.2876974918    0.2500010767
C6         C    0.5188490473    0.2688478927    0.2123019947
H7         H    0.4999996550    0.1843925529    0.2500008062
H8         H    0.4671967668    0.2828031984    0.3156061945
H9         H    0.5328035782    0.2828042486    0.1843929993
O10        O    0.4999997001    0.4525039286    0.2115062823
O11        O    0.5000004212    0.5474974573    0.2115078307
O12        O    0.5474978292    0.5000046610    0.2115094585
O13        O    0.4524988311    0.5000001878    0.2115046463
O14        O    0.4524979276    0.4999999560    0.2884912561
O15        O    0.5474934635    0.5000009686    0.2884959424
O16        O    0.4999995178    0.5474972255    0.2884944405
O17        O    0.4999987967    0.4525036968    0.2884928921
Cu18      Cu    0.5000005596    0.5000033016    0.2044815697
Cu19      Cu    0.4999986583    0.4999978525    0.2955191531
C20        C    0.4999997312    0.4384973047    0.2500003734
C21        C    0.4999994867    0.5615038494    0.2500003494
C22        C    0.5615007389    0.5000004377    0.2500003614
C23        C    0.4384984790    0.5000007164    0.2500003614
C24        C    0.7688487792    0.5188504276    0.2123013232
C25        C    0.7311512874    0.5188498494    0.2123024239
C26        C    0.7123017035    0.5000002670    0.2500015577
C27        C    0.7311496115    0.4811512628    0.2876995909
C28        C    0.7688471033    0.4811518411    0.2876984903
C29        C    0.7876966871    0.5000014235    0.2499993564
H30        H    0.7171949201    0.5328043482    0.1843934078
H31        H    0.7171960234    0.4671976759    0.3156067420
H32        H    0.8156066424    0.5000005116    0.2500012215
C33        C    0.4811503173    0.7688497008    0.2123008295
C34        C    0.4811507748    0.7311522090    0.2123019560
C35        C    0.5000003707    0.7123025778    0.2500010290
C36        C    0.5188495092    0.7311504383    0.2876989753
C37        C    0.5188490516    0.7688479301    0.2876978487
C38        C    0.4999994557    0.7876975614    0.2499987758
H39        H    0.4671961766    0.7171958769    0.1843930042
H40        H    0.5328031062    0.7171968152    0.3156060812
H41        H    0.5000004569    0.8156075166    0.2500006217
C42        C    0.2311500476    0.5188506675    0.2876995953
C43        C    0.2688475394    0.5188500614    0.2876984859
C44        C    0.2876971050    0.5000004652    0.2499993476
C45        C    0.2688491787    0.4811514749    0.2123013188
C46        C    0.2311516869    0.4811520809    0.2123024283
C47        C    0.2123021213    0.5000016772    0.2500015666
H48        H    0.2828039202    0.5328045500    0.3156074987
H49        H    0.2828027532    0.4671978777    0.1843941645
H50        H    0.1843921660    0.5000007859    0.2499997080
C51        C    0.4811503922    0.7688496347    0.7876987706
C52        C    0.4811508775    0.7311521429    0.7876977341
C53        C    0.5000004447    0.7123024805    0.7499986635
C54        C    0.5188495265    0.7311503099    0.7123006295
C55        C    0.5188490412    0.7688478017    0.7123016661
C56        C    0.4999994741    0.7876974641    0.7500007366
H57        H    0.4671963211    0.7171958338    0.8156067508
H58        H    0.5328031022    0.7171966637    0.6843935253
H59        H    0.5000004548    0.8156074193    0.7499988241
O60        O    0.4999995846    0.5474971481    0.7115058766
O61        O    0.4999988696    0.4525036194    0.7115074621
O62        O    0.4525014585    0.4999964126    0.7115090713
O63        O    0.5475004567    0.5000008920    0.7115042592
O64        O    0.5475013602    0.5000011388    0.7884908690
O65        O    0.4525058243    0.5000001200    0.7884955552
O66        O    0.4999997731    0.4525038662    0.7884940719
O67        O    0.5000004880    0.5474973950    0.7884924863
Cu68      Cu    0.4999987282    0.4999977737    0.7044811825
Cu69      Cu    0.5000006294    0.5000032406    0.7955187659
C70        C    0.4999995526    0.5615037796    0.7499999622
C71        C    0.4999998050    0.4384972348    0.7499999862
C72        C    0.4384985489    0.5000006425    0.7499999742
C73        C    0.5615008088    0.5000003718    0.7499999742
C74        C    0.2311499838    0.4811514812    0.7876994084
C75        C    0.2688474756    0.4811519823    0.7876982575
C76        C    0.2876970730    0.5000015261    0.7499990986
C77        C    0.2688491785    0.5188505688    0.7123010905
C78        C    0.2311516867    0.5188500678    0.7123022413
C79        C    0.2123020893    0.5000005240    0.7500014003
H80        H    0.2828038328    0.4671974549    0.8156072551
H81        H    0.2828027766    0.5328041272    0.6843939209
H82        H    0.1843921340    0.5000014930    0.7499995723
C83        C    0.5188497524    0.2311503371    0.7876987989
C84        C    0.5188491669    0.2688478289    0.7876977983
C85        C    0.4999994983    0.2876974591    0.7499987970
C86        C    0.4811504152    0.2688495976    0.7123007964
C87        C    0.4811510006    0.2311521058    0.7123017971
C88        C    0.5000006692    0.2123024756    0.7500007984
H89        H    0.5328037243    0.2828041618    0.8156067902
H90        H    0.4671967644    0.2828032200    0.6843937435
H91        H    0.4999997627    0.1843925203    0.7499988593
C92        C    0.7688488667    0.5188504087    0.7876993928
C93        C    0.7311513749    0.5188498300    0.7876982731
C94        C    0.7123018008    0.5000002473    0.7499991297
C95        C    0.7311497185    0.4811512434    0.7123011060
C96        C    0.7688472104    0.4811518222    0.7123022258
C97        C    0.7876967844    0.5000014048    0.7500013692
H98        H    0.7171950004    0.5328043286    0.8156072821
H99        H    0.7171961377    0.4671976563    0.6843939479
H100       H    0.8156067397    0.5000004933    0.7499995182
C101       C    0.9811502172    0.7311510900    0.7876991501
C102       C    0.9999992148    0.7123031371    0.7500011553
C103       C    1.0188488318    0.7311526760    0.7123020111
C104       C    1.0188494512    0.7688501678    0.7123008618
C105       C    1.0000004536    0.7876981207    0.7499988566
C106       C    0.9811508366    0.7688485818    0.7876980008
H107       H    1.0000000962    0.6843931818    0.7499993262
H108       H    1.0328030638    0.7828037226    0.6843937032
H109       H    0.9671963426    0.7828049822    0.8156069885
O110       O    0.0000003261    1.0474961590    0.7884933026
O111       O    0.0000014333    0.9525026303    0.7884917356
O112       O    0.0474986482    0.9999956196    0.7884903738
O113       O   -0.0475003499    0.9999997068    0.7884946725
O114       O   -0.0475010454    0.9999999461    0.7115080627
O115       O    0.0474944905    0.9999993195    0.7115038899
O116       O    0.0000007378    0.9525028696    0.7115051258
O117       O   -0.0000003693    1.0474963983    0.7115066928
Cu118     Cu    0.0000013596    0.9999967853    0.7955180059
Cu119     Cu   -0.0000002957    1.0000022433    0.7044804225
C120       C    0.0000004042    1.0615027867    0.7499992142
C121       C    0.0000006597    0.9384962419    0.7499992142
C122       C    0.0615016619    0.9999999036    0.7499995466
C123       C   -0.0615005980    0.9999991250    0.7499988818
C124       C    0.2688494451    0.0188498051    0.7123006770
C125       C    0.2311519532    0.0188491663    0.7123017173
C126       C    0.2123023695   -0.0000004481    0.7500008192
C127       C    0.2311502775   -0.0188494237    0.7876988808
C128       C    0.2688477693   -0.0188487849    0.7876978406
C129       C    0.2876973531    0.0000008295    0.7499987387
H130       H    0.2171955860    0.0328036441    0.6843926801
H131       H    0.2171966895   -0.0328030344    0.8156060082
H132       H    0.3156073084   -0.0000000376    0.7500006485
C133       C    0.9999997325    0.2123014323    0.7499999011
C134       C    1.0188481390    0.2311510266    0.7876968456
C135       C    1.0188480147    0.2688501958    0.7876969505
C136       C    0.9999994840    0.2876997707    0.7500001108
C137       C    0.9811510775    0.2688501764    0.7123031663
C138       C    0.9811512018    0.2311510072    0.7123030614
H139       H    1.0328036273    0.2171974451    0.8156076580
H140       H    0.9999993920    0.3156069479    0.7500001884
H141       H    0.9671958054    0.2171974114    0.6843921714
C142       C    0.7311534514    0.9811466207    0.7122979435
C143       C    0.7123055340    0.9999956113    0.7499959809
C144       C    0.7311551085    1.0188452038    0.7876951141
C145       C    0.7688526003    1.0188458057    0.7876962098
C146       C    0.7877005177    0.9999968152    0.7499981724
C147       C    0.7688509432    0.9811472227    0.7122990393
H148       H    0.6843955787    0.9999965056    0.7499978497
H149       H    0.7828061814    1.0327994002    0.8156033603
H150       H    0.7828073174    0.9671927339    0.6843900200
C151       C    0.9811497048    0.2688506298    0.2876995087
C152       C    0.9999987194    0.2876985547    0.2500015029
C153       C    1.0188483194    0.2688489877    0.2123023697
C154       C    1.0188489047    0.2311514959    0.2123012424
C155       C    0.9999998900    0.2123035711    0.2499992482
C156       C    0.9811502901    0.2311531381    0.2876983814
H157       H    0.9999996261    0.3156085099    0.2499996576
H158       H    1.0328025047    0.2171979203    0.1843940919
H159       H    0.9671957834    0.2171967583    0.3156073772
O160       O    0.9999996251    0.0474973211    0.2884942910
O161       O    1.0000004495   -0.0474962076    0.2884927240
O162       O    1.0474978058   -0.0000033597    0.2884911634
O163       O    0.9524988077    0.0000010103    0.2884958598
O164       O    0.9524979511    0.0000012496    0.2115092500
O165       O    1.0474934870    0.0000003402    0.2115046795
O166       O    0.9999995929   -0.0474959683    0.2115061142
O167       O    0.9999987685    0.0474975604    0.2115076812
Cu168     Cu    1.0000005319   -0.0000020526    0.2955189943
Cu169     Cu    0.9999986861    0.0000034054    0.2044814109
C170       C    0.9999996643    0.0615039488    0.2500002026
C171       C    0.9999995536   -0.0615025960    0.2500002026
C172       C    1.0615007389    0.0000008826    0.2500002776
C173       C    0.9384984790    0.0000004702    0.2500001277
C174       C    0.7311508591    0.9811499190    0.2876986102
C175       C    0.7123029419    0.9999988546    0.2500005177
C176       C    0.7311525165    1.0188485091    0.2123014467
C177       C    0.7688500083    1.0188492280    0.2123004682
C178       C    0.7876979255    1.0000002924    0.2499985607
C179       C    0.7688483509    0.9811506379    0.2876976317
H180       H    0.6843929866    0.9999996624    0.2499985621
H181       H    0.7828035895    1.0328028683    0.1843933637
H182       H    0.7828047250    0.9671961899    0.3156066918
C183       C    0.9811499150    0.7311513677    0.2123012574
C184       C    0.9999989409    0.7123034692    0.2499992783
C185       C    1.0188485296    0.7311530624    0.2876983964
C186       C    1.0188490924    0.7688505542    0.2876994937
C187       C    1.0000000665    0.7876984528    0.2500014728
C188       C    0.9811504778    0.7688488595    0.2123023547
H189       H    0.9999998641    0.6843935139    0.2500011459
H190       H    1.0328026841    0.7828041492    0.3156066330
H191       H    0.9671959628    0.7828052198    0.1843933477
C192       C    0.2688490491   -0.0188489834    0.2123010023
C193       C    0.2876969714    0.0000000152    0.2499990266
C194       C    0.2688474019    0.0188495996    0.2876981728
C195       C    0.2311499101    0.0188501853    0.2876992947
C196       C    0.2123019878    0.0000011866    0.2500012704
C197       C    0.2311515573   -0.0188483977    0.2123021242
H198       H    0.3156069267    0.0000009216    0.2500008760
H199       H    0.2171963326    0.0328037737    0.3156064549
H200       H    0.2171951794   -0.0328028925    0.1843931146
O201       O    0.0820041640    0.3704998266   -0.0474963987
O202       O    0.1295020196    0.4179962035    0.0474963299
O203       O    0.1295051804    0.4179976718   -0.0474937778
O204       O    0.0820010001    0.3704983633    0.0475006330
O205       O    0.1204937785    0.3320044537    0.0475013571
O206       O    0.1679944345    0.3795003637   -0.0474930520
O207       O    0.1679947981    0.3795022939    0.0474970540
O208       O    0.1204969425    0.3320059170   -0.0474956746
Cu209     Cu    0.1022418984    0.3977623156    0.0000020706
Cu210     Cu    0.1477570636    0.3522398049   -0.0000014153
C211       C    0.0942479402    0.3442494622   -0.0615030157
C212       C    0.1557510219    0.4057526583    0.0615036710
C213       C    0.1557500013    0.4057515419   -0.0615008678
C214       C    0.0942489608    0.3442505787    0.0615015231
O215       O    0.6204996596    0.1679944311    1.0474955615
O216       O    0.6679952828    0.1204970963    0.9525015586
O217       O    0.6204994096    0.1679914274    0.9524967966
O218       O    0.6679989988    0.1204966421    1.0475003217
O219       O    0.6295059558    0.0820029970    1.0475015197
O220       O    0.5820064305    0.1294978445    0.9525049174
O221       O    0.6295022398    0.0820034513    0.9525027565
O222       O    0.5820066166    0.1295007861    1.0474967595
Cu223     Cu    0.6477612762    0.1477574526    0.9999954468
Cu224     Cu    0.6022406232    0.1022404297    1.0000028713
C225       C    0.5942492505    0.1557507340    1.0615021494
C226       C    0.6557526489    0.0942471484    0.9384961687
C227       C    0.5942503664    0.1557495299    0.9384981336
C228       C    0.6557515330    0.0942483525    1.0615001845
O229       O    0.9179947374    0.6295020297   -0.0474963425
O230       O    0.8704967602    0.5820057820    0.0474963936
O231       O    0.8704936696    0.5820042359   -0.0474937141
O232       O    0.9179978311    0.6295035708    0.0475006892
O233       O    0.8795050943    0.6679975220    0.0475012934
O234       O    0.8320044572    0.6205015856   -0.0474931082
O235       O    0.8320040234    0.6204997333    0.0474969978
O236       O    0.8795020006    0.6679959809   -0.0474957383
Cu237     Cu    0.8977569384    0.6022396015    0.0000021415
Cu238     Cu    0.8522418224    0.6477621615   -0.0000014862
C239       C    0.9057510000    0.6557523959   -0.0615030206
C240       C    0.8442477608    0.5942493671    0.0615036759
C241       C    0.8442488723    0.5942503828   -0.0615008629
C242       C    0.9057498885    0.6557513802    0.0615015182
O243       O    0.3795009098    0.8320049580    0.9525032614
O244       O    0.3320045746    0.8795028885    1.0474959568
O245       O    0.3320030822    0.8795059919    0.9525058491
O246       O    0.3795023973    0.8320018514    1.0475002931
O247       O    0.4179963211    0.8704946156    1.0475009512
O248       O    0.3705004045    0.9179952317    0.9525065088
O249       O    0.3704984985    0.9179956527    1.0474966148
O250       O    0.4179948336    0.8704977222    0.9525039195
Cu251     Cu    0.3522384403    0.8522427311    1.0000017201
Cu252     Cu    0.3977609679    0.8977578795    0.9999981561
C253       C    0.4057512752    0.8442487160    0.9384966163
C254       C    0.3442481331    0.9057518947    1.0615032600
C255       C    0.3442492182    0.9057507998    0.9384987212
C256       C    0.4057501901    0.8442498109    1.0615011551
O257       O    0.1679950210    0.6204998801    0.5474970166
O258       O    0.1204970974    0.6679962098    0.4525043090
O259       O    0.1204939803    0.6679977009    0.5474944167
O260       O    0.1679981413    0.6204983941    0.4524999849
O261       O    0.1295053826    0.5820044647    0.4524993146
O262       O    0.0820047459    0.6295003731    0.5474937447
O263       O    0.0820043387    0.6295022805    0.4525036387
O264       O    0.1295022623    0.5820059508    0.5474963463
Cu265     Cu    0.1477572508    0.6477623474    0.4999985529
Cu266     Cu    0.1022421089    0.6022398133    0.5000021024
C267       C    0.1557512648    0.5942495128    0.5615036575
C268       C    0.0942480949    0.6557526478    0.4384969978
C269       C    0.0942491721    0.6557515609    0.5615015366
C270       C    0.1557501876    0.5942505997    0.4384991187
O271       O    0.4179950316    0.1295014874    0.4525032752
O272       O    0.3704971021    0.0820051875    0.5474960067
O273       O    0.3704939336    0.0820037239    0.4525058990
O274       O    0.4179982032    0.1295029461    0.5475003068
O275       O    0.3795054908    0.1679969218    0.5475010409
O276       O    0.3320047456    0.1205010981    0.4525066348
O277       O    0.3320043897    0.1204991632    0.5474967408
O278       O    0.3795023192    0.1679954632    0.4525040092
Cu279     Cu    0.3977572542    0.1022390309    0.5000017450
Cu280     Cu    0.3522421671    0.1477616198    0.4999982709
C281       C    0.4057512994    0.1557518736    0.4384966627
C282       C    0.3442481219    0.0942487771    0.5615033533
C283       C    0.3442491326    0.0942498995    0.4384988145
C284       C    0.4057502887    0.1557507511    0.5615012015
O285       O    0.9179945331    0.3704996535    0.5474969963
O286       O    0.8704965866    0.4179960009    0.4525043293
O287       O    0.8704934898    0.4179974716    0.5474944370
O288       O    0.9179976331    0.3704981877    0.4524999646
O289       O    0.8795048766    0.3320042563    0.4524992943
O290       O    0.8320042576    0.3795001417    0.5474937650
O291       O    0.8320038300    0.3795020694    0.4525036590
O292       O    0.8795017766    0.3320057220    0.5474963260
Cu293     Cu    0.8977567512    0.3977621298    0.4999985529
Cu294     Cu    0.8522416119    0.3522395931    0.5000021024
C295       C    0.9057507814    0.3442492825    0.5615036312
C296       C    0.8442475818    0.4057524404    0.4384970241
C297       C    0.8442486852    0.4057513272    0.5615015629
C298       C    0.9057496779    0.3442503957    0.4384990924
O299       O    0.6295022442    0.9179944399    0.4525027737
O300       O    0.5820065857    0.8704973804    0.5474970167
O301       O    0.6295028696    0.9179913008    0.5475015386
O302       O    0.5820024942    0.8704970616    0.4524982536
O303       O    0.6204952043    0.8320030837    0.4524966415
O304       O    0.6679955159    0.8794973850    0.5474930037
O305       O    0.6204992958    0.8320034024    0.5474954047
O306       O    0.6679949543    0.8795004620    0.4525011616
Cu307     Cu    0.6022406403    0.8977576294    0.5000030463
Cu308     Cu    0.6477608997    0.8522402129    0.4999951321
C309       C    0.6557524920    0.9057505357    0.4384959434
C310       C    0.5942490480    0.8442473066    0.5615022349
C311       C    0.6557518623    0.9057491562    0.5614999592
C312       C    0.5942496777    0.8442486861    0.4384982192
C783       C    0.2886974822   -0.0820875093    0.1068912790
C784       C    0.3253984117   -0.0753983744    0.0992025964
C785       C    0.3432495206   -0.0498594095    0.1292134485
C786       C    0.3243997001   -0.0310095794    0.1669129833
C787       C    0.2876987705   -0.0376987143    0.1746016659
C788       C    0.2698476616   -0.0632376793    0.1445908138
H789       H    0.2754830249   -0.1009929769    0.0846754535
H790       H    0.3704159832   -0.0449073274    0.1235232627
H791       H    0.3376141573   -0.0121041119    0.1891288088
H792       H    0.2426811991   -0.0681897614    0.1502809996
C773       C    0.2897238232    0.0753200684    0.3234541000
C774       C    0.2876982053    0.0377000453    0.3253990746
C775       C    0.3045226493    0.0189297265    0.3650434683
C776       C    0.3233727113    0.0377794308    0.4027428874
C777       C    0.3253983292    0.0753994539    0.4007979127
C778       C    0.3085738852    0.0941697727    0.3611535190
H779       H    0.2772693646    0.0892149797    0.2941069514
H780       H    0.3030238266   -0.0089170749    0.3664843863
H781       H    0.3358271699    0.0238845195    0.4320900360
H782       H    0.3100727079    0.1220165741    0.3597126011
C763       C    1.0611853900    0.7306917804    0.3580011708
C764       C    1.0376985359    0.7123028438    0.3253982768
C765       C    1.0330614582    0.6750639186    0.3304948031
C766       C    1.0519112345    0.6562139299    0.3681942234
C767       C    1.0753980886    0.6746028665    0.4007971175
C768       C    1.0800351663    0.7118417917    0.3957005911
H769       H    1.0646180320    0.7582582575    0.3542284175
H770       H    1.0156764255    0.6614513146    0.3063624181
H771       H    1.0484785925    0.6286474528    0.3719669767
H772       H    1.0974201990    0.7254543957    0.4198329761
C753       C    0.9640751291    0.7236191813    0.1238070698
C754       C    0.9622997201    0.7123011826    0.1746009461
C755       C    0.9416744927    0.6821333753    0.1876952642
C756       C    0.9228246744    0.6632835667    0.1499957059
C757       C    0.9246000833    0.6746015653    0.0992018295
C758       C    0.9452253107    0.7047693726    0.0861075114
H759       H    0.9793431545    0.7459511945    0.1141138733
H760       H    0.9403596886    0.6737548782    0.2252931254
H761       H    0.9075566489    0.6409515534    0.1596889023
H762       H    0.9465401149    0.7131478697    0.0485096503
C743       C    0.6754607698    0.9622853852    0.4016404990
C744       C    0.6746019801    0.9246002779    0.4007968173
C745       C    0.6925928859    0.9057651201    0.3622535952
C746       C    0.7114425813    0.9246150695    0.3245540546
C747       C    0.7123013709    0.9623001768    0.3253977363
C748       C    0.6943104651    0.9811353347    0.3639409585
H749       H    0.6621428265    0.9762282943    0.4301724946
H750       H    0.6919577822    0.8778701415    0.3616278852
H751       H    0.7247605245    0.9106721605    0.2960220590
H752       H    0.6949455688    1.0090303132    0.3645666684
C733       C    0.7101943516    1.0238137319    0.1251227687
C734       C    0.7123019364    1.0376988042    0.1746004627
C735       C    0.6955596095    1.0704335031    0.1863785095
C736       C    0.6767096978    1.0892831298    0.1486788624
C737       C    0.6746021131    1.0753980574    0.0992011685
C738       C    0.6913444400    1.0426633585    0.0874231217
H739       H    0.7225880222    0.9995815522    0.1164039549
H740       H    0.6971191064    1.0807122203    0.2230020954
H741       H    0.6643160273    1.1135153095    0.1573976763
H742       H    0.6897849431    1.0323846414    0.0507995357
C723       C    1.0261955349   -0.1180525032    0.2775582091
C724       C    0.9999996819   -0.0992024598    0.2500005202
C725       C    0.9738039571   -0.1180520282    0.2224431487
C726       C    0.9738040853   -0.1557516401    0.2224434663
C727       C    0.9999999383   -0.1746016834    0.2500011553
C728       C    1.0261956631   -0.1557521150    0.2775585267
H729       H    1.0455871753   -0.1040989265    0.2979578218
H730       H    0.9544130508   -0.1040998896    0.2020441732
H731       H    0.9544124449   -0.1697052167    0.2020438537
H732       H    1.0455865694   -0.1697042536    0.2979575022
C713       C    0.8819477540    0.0163395444    0.2100255557
C714       C    0.9007978141    0.0000004258    0.2499997359
C715       C    0.8819482624   -0.0163387374    0.2899735244
C716       C    0.8442486506   -0.0163387818    0.2899731327
C717       C    0.8253985904    0.0000003369    0.2499989525
C718       C    0.8442481421    0.0163395000    0.2100251640
H719       H    0.8959013183    0.0284347691    0.1804345694
H720       H    0.8959004134   -0.0284334121    0.3195635356
H721       H    0.8302950863   -0.0284340065    0.3195641190
H722       H    0.8302959912    0.0284341747    0.1804351528
C703       C    1.1180520607   -0.0326285775    0.2515752933
C704       C    1.0992017515    0.0000009586    0.2500005258
C705       C    1.1180510542    0.0326305707    0.2484260064
C706       C    1.1557506660    0.0326306467    0.2484262546
C707       C    1.1746009752    0.0000011106    0.2500010222
C708       C    1.1557516725   -0.0326285015    0.2515755415
H709       H    1.1040986808   -0.0567829657    0.2527408466
H710       H    1.1040987189    0.0567838700    0.2472603192
H711       H    1.1697040460    0.0567850350    0.2472607013
H712       H    1.1697040078   -0.0567818008    0.2527412287
C693       C    1.0198570786    0.1557532095    0.2866497411
C694       C    0.9999998336    0.1746033717    0.2499994868
C695       C    0.9801425322    0.1557539222    0.2133494711
C696       C    0.9801424757    0.1180543104    0.2133497097
C697       C    0.9999997207    0.0992041481    0.2499999640
C698       C    1.0198570222    0.1180535976    0.2866499797
H699       H    1.0345566394    0.1697066981    0.3137802722
H700       H    0.9654436416    0.1697061488    0.1862199233
H701       H    0.9654429149    0.1041008218    0.1862191786
H702       H    1.0345559128    0.1041013710    0.3137795275
C683       C    0.9427279314    0.3186255680    0.3126038181
C684       C    0.9622995334    0.2877007360    0.3253997340
C685       C    0.9630212933    0.2756256808    0.3758952164
C686       C    0.9441714512    0.2944754576    0.4135947830
C687       C    0.9245998493    0.3254002896    0.4007988671
C688       C    0.9238780894    0.3374753448    0.3503033847
H689       H    0.9421936416    0.3275642452    0.2752240454
H690       H    0.9775081463    0.2527348480    0.3853683059
H691       H    0.9447057410    0.2855367804    0.4509745557
H692       H    0.9093912364    0.3603661776    0.3408302952
C673       C    1.0749176399    0.2927557333    0.1791755689
C674       C    1.0376988758    0.2876997815    0.1746013659
C675       C    1.0193298760    0.3014938314    0.1323277434
C676       C    1.0381796403    0.3203438330    0.0946283239
C677       C    1.0753984043    0.3253997848    0.0992025269
C678       C    1.0937674041    0.3116057350    0.1414761494
H679       H    1.0885154709    0.2825445536    0.2104690297
H680       H    0.9917800978    0.2977518703    0.1289405968
H681       H    1.0245818093    0.3305550127    0.0633348632
H682       H    1.1213171823    0.3153476960    0.1448632961
C663       C    0.6838284362    0.9789216206    0.6487493454
C664       C    0.7123030356    0.9622972361    0.6745984104
C665       C    0.7219272562    0.9268235039    0.6627480164
C666       C    0.7030768775    0.9079741563    0.6250485574
C667       C    0.6746022781    0.9245985409    0.5991994923
C668       C    0.6649780574    0.9600722731    0.6110498863
H669       H    0.6767040131    1.0051813964    0.6575217149
H670       H    0.7430043581    0.9145170709    0.6818810274
H671       H    0.7102013006    0.8817143806    0.6162761878
H672       H    0.6439009556    0.9723787061    0.5919168753
C653       C    0.6749009736    1.0416465139    0.8217431227
C654       C    0.7123039487    1.0376962348    0.8253964674
C655       C    0.7308568539    1.0525958970    0.8667489861
C656       C    0.7120067838    1.0714458383    0.9044481600
C657       C    0.6746038086    1.0753961174    0.9007948154
C658       C    0.6560509035    1.0604964552    0.8594422967
H659       H    0.6611670048    1.0306168939    0.7911315180
H660       H    0.7585429903    1.0496723859    0.8694544875
H661       H    0.7257407525    1.0824754583    0.9350597648
H662       H    0.6283647671    1.0634199663    0.8567367953
C643       C    0.9683123042    0.2799366633    0.6231277741
C644       C    0.9623008662    0.2877000902    0.6746030080
C645       C    0.9374394914    0.3143131564    0.6883786327
C646       C    0.9185895546    0.3331627956    0.6506790234
C647       C    0.9246009926    0.3253993687    0.5992037895
C648       C    0.9494623674    0.2987863025    0.5854281648
H649       H    0.9867161791    0.2602360818    0.6129302338
H650       H    0.9329890596    0.3200604596    0.7264808539
H651       H    0.9001856798    0.3528633771    0.6608765637
H652       H    0.9539127993    0.2930389993    0.5473259436
C633       C    1.0475444954    0.2703302354    0.8706210158
C634       C    1.0376981514    0.2877001677    0.8253972695
C635       C    1.0467016334    0.3239197612    0.8178732210
C636       C    1.0655514595    0.3427694226    0.8555729189
C637       C    1.0753978035    0.3253994904    0.9007966653
C638       C    1.0663943215    0.2891798968    0.9083207137
H639       H    1.0408795801    0.2435183285    0.8761907660
H640       H    1.0394136895    0.3367780696    0.7843985266
H641       H    1.0722163748    0.3695813295    0.8500031688
H642       H    1.0736822654    0.2763215884    0.9417954082
C623       C    0.3252731124   -0.0352371776    0.8279864224
C624       C    0.2876985067   -0.0376992640    0.8253988111
C625       C    0.2689738881   -0.0590110790    0.8605106696
C626       C    0.2878238751   -0.0778608076    0.8982101394
C627       C    0.3253984808   -0.0753987212    0.9007977506
C628       C    0.3441230994   -0.0540869062    0.8656858921
H629       H    0.3391341938   -0.0194608990    0.8019945271
H630       H    0.2411607059   -0.0608341810    0.8585964402
H631       H    0.2739627937   -0.0936370862    0.9242020346
H632       H    0.3719362816   -0.0522638042    0.8676001216
C613       C    0.2751595290    0.0376597880    0.6243219856
C614       C    0.2876990037    0.0376994376    0.6746015672
C615       C    0.3190882582    0.0565889407    0.6871815968
C616       C    0.3379380380    0.0754387942    0.6494820448
C617       C    0.3253985632    0.0753991447    0.5992024631
C618       C    0.2940093087    0.0565096416    0.5866224336
H619       H    0.2519233276    0.0236766493    0.6150094962
H620       H    0.3283709263    0.0566188870    0.7243987625
H621       H    0.3611742394    0.0894219329    0.6587945342
H622       H    0.2847266407    0.0564796953    0.5494052678
C603       C   -0.1180511827    1.0304858953    0.7665172482
C604       C   -0.0992004283    0.9999985476    0.7499987044
C605       C   -0.1180492858    0.9695106224    0.7334799833
C606       C   -0.1557488976    0.9695100450    0.7334798060
C607       C   -0.1745996520    0.9999973927    0.7499983498
C608       C   -0.1557507945    1.0304853178    0.7665170709
H609       H   -0.1040981324    1.0530548788    0.7787453925
H610       H   -0.1040966209    0.9469430312    0.7212524931
H611       H   -0.1697019479    0.9469410614    0.7212516617
H612       H   -0.1697034594    1.0530529091    0.7787445611
C593       C    0.0187182843    1.1180529157    0.7121693530
C594       C    0.0000002363    1.0992024977    0.7499993859
C595       C   -0.0187179796    1.1180516914    0.7878295906
C596       C   -0.0187181476    1.1557513032    0.7878297623
C597       C   -0.0000000996    1.1746017213    0.7499997294
C598       C    0.0187181163    1.1557525276    0.7121695247
H599       H    0.0325746259    1.1040996165    0.6841651755
H600       H   -0.0325736046    1.1040992755    0.8158324437
H601       H   -0.0325744892    1.1697046025    0.8158339398
H602       H    0.0325737413    1.1697049435    0.6841666716
C583       C    0.1180528528    1.0026855806    0.7039845233
C584       C    0.0992024038    0.9999998156    0.7499998647
C585       C    0.1180515667    0.9973139628    0.7960155242
C586       C    0.1557511786    0.9973138749    0.7960158424
C587       C    0.1746016275    0.9999996398    0.7500005010
C588       C    0.1557524647    1.0026854927    0.7039848415
H589       H    0.1040995764    1.0046738094    0.6699209832
H590       H    0.1040991279    0.9953258841    0.8300773726
H591       H    0.1697044550    0.9953256461    0.8300793825
H592       H    0.1697049035    1.0046735714    0.6699229931
C573       C    0.9770995830    0.8442478103    0.7829071765
C574       C    1.0000005051    0.8253975695    0.7499989460
C575       C    1.0229014788    0.8442469405    0.7170908049
C576       C    1.0229015303    0.8819465523    0.7170908943
C577       C    1.0000006082    0.9007967931    0.7499991248
C578       C    0.9770996345    0.8819474221    0.7829072659
H579       H    0.9601469142    0.8302943798    0.8072677485
H580       H    1.0398533847    0.8302946557    0.6927312081
H581       H    1.0398541992    0.8958999828    0.6927303222
H582       H    0.9601477286    0.8958997068    0.8072668626
C563       C    1.0686302808    0.7273516713    0.6527819577
C564       C    1.0376992412    0.7123020730    0.6746012439
C565       C    1.0256179623    0.6784025201    0.6587210601
C566       C    1.0444677231    0.6595525656    0.6210215901
C567       C    1.0753987627    0.6746021639    0.5992023038
C568       C    1.0874800416    0.7085017168    0.6150824877
H569       H    1.0775735651    0.7524461455    0.6645374185
H570       H    1.0027225344    0.6672617881    0.6748711157
H571       H    1.0355244388    0.6344580914    0.6092661293
H572       H    1.1103754695    0.7196424488    0.5989324321
C553       C    0.9772262627    0.7083069260    0.8740302158
C554       C    0.9623004754    0.7123014790    0.8253984823
C555       C    0.9285248213    0.6974462959    0.8144663313
C556       C    0.9096749545    0.6785965599    0.8521659137
C557       C    0.9246007417    0.6746020069    0.9007976472
C558       C    0.9583763959    0.6894571899    0.9117297982
H559       H    1.0022290197    0.7193036199    0.8821228470
H560       H    0.9174757377    0.7004025798    0.7784689491
H561       H    0.8846721975    0.6675998659    0.8440732824
H562       H    0.9694254795    0.6865009061    0.9477271804
C543       C    0.7729302288    0.4586085509    0.6258255882
C544       C    0.7876979473    0.4623013302    0.6746013237
C545       C    0.8213156663    0.4471443540    0.6856776299
C546       C    0.8401656668    0.4282945985    0.6479782006
C547       C    0.8253979483    0.4246018191    0.5992024651
C548       C    0.7917802293    0.4397587953    0.5881261589
H549       H    0.7480443849    0.4698286502    0.6176262446
H550       H    0.8322477429    0.4498772565    0.7217816065
H551       H    0.8650515107    0.4170744992    0.6561775441
H552       H    0.7808481527    0.4370258929    0.5520221823
C533       C    0.7884932041    0.5753877906    0.8246188451
C534       C    0.7876990545    0.5377005886    0.8253997017
C535       C    0.8057547199    0.5188631938    0.8638801216
C536       C    0.8246045349    0.5377130009    0.9015796849
C537       C    0.8253986845    0.5754002028    0.9007988282
C538       C    0.8073430191    0.5942375977    0.8623184083
H539       H    0.7751273220    0.5893323556    0.7961333394
H540       H    0.8051674646    0.4909666648    0.8644593268
H541       H    0.8379704170    0.5237684359    0.9300651905
H542       H    0.8079302744    0.6221341267    0.8617392032
C523       C    0.4405944165    0.2309813477    0.6399262213
C524       C    0.4623004526    0.2123013971    0.6746009081
C525       C    0.4651566808    0.1747714778    0.6715761861
C526       C    0.4463068728    0.1559215092    0.6338767772
C527       C    0.4246008367    0.1746014599    0.5992020905
C528       C    0.4217446085    0.2121313791    0.6022268125
H529       H    0.4384800657    0.2587632360    0.6421653013
H530       H    0.4812235020    0.1609434571    0.6972421702
H531       H    0.4484212236    0.1281396210    0.6316376973
H532       H    0.4056777873    0.2259593999    0.5765608283
C513       C    0.5382358851    0.1799424406    0.9056040936
C514       C    0.5753999620    0.1745999826    0.9007977981
C515       C    0.5937141364    0.1881074755    0.8582921708
C516       C    0.5748642338    0.2069574264    0.8205928389
C517       C    0.5377001568    0.2122998844    0.8253991344
C518       C    0.5193859825    0.1987923915    0.8679047618
H519       H    0.5246786392    0.1699433874    0.9370692982
H520       H    0.6212234336    0.1841534345    0.8547332228
H521       H    0.5884214797    0.2169564795    0.7891276343
H522       H    0.4918766852    0.2027464325    0.8714637098
C503       C    0.1592627366    0.5448549571    0.6216984687
C504       C    0.1746014771    0.5753995447    0.5992035171
C505       C    0.2087902163    0.5870943779    0.6144079978
C506       C    0.2276402149    0.5682446235    0.6521074301
C507       C    0.2123014744    0.5377000359    0.6746023817
C508       C    0.1781127352    0.5260052027    0.6593979010
H509       H    0.1339541894    0.5361977429    0.6104432038
H510       H    0.2201449794    0.6097037432    0.5977577957
H511       H    0.2529487621    0.5769018377    0.6633626950
H512       H    0.1667579720    0.5033958374    0.6760481031
C493       C    0.1879422691    0.4352170230    0.8116583751
C494       C    0.2122998066    0.4623013149    0.8253997024
C495       C    0.2178075301    0.4705358034    0.8768405976
C496       C    0.1989577160    0.4516860001    0.9145401655
C497       C    0.1746001784    0.4246017083    0.9007988382
C498       C    0.1690924550    0.4163672197    0.8493579430
H499       H    0.1838651231    0.4291213627    0.7735787514
H500       H    0.2358370672    0.4905837606    0.8870135072
H501       H    0.2030348620    0.4577816605    0.9526197892
H502       H    0.1510629179    0.3963192625    0.8391850334
C483       C    0.6180518104    0.4895194853    0.7062714306
C484       C    0.5992016929    0.5000003407    0.7499997631
C485       C    0.6180511873    0.5104811649    0.7937278845
C486       C    0.6557507992    0.5104811338    0.7937276733
C487       C    0.6746009166    0.5000002785    0.7499993408
C488       C    0.6557514222    0.4895194542    0.7062712194
H489       H    0.6040982885    0.4817609531    0.6739012628
H490       H    0.6040989939    0.5182393885    0.8260968247
H491       H    0.6697043210    0.5182396661    0.8260978411
H492       H    0.6697036156    0.4817612307    0.6739022793
C473       C    0.5172702685    0.3819468296    0.7108165231
C474       C    0.4999997283    0.4007969588    0.7499996889
C475       C    0.4827291114    0.3819474761    0.7891825575
C476       C    0.4827290348    0.3442478643    0.7891822602
C477       C    0.4999995750    0.3253977352    0.7499990943
C478       C    0.5172701919    0.3442472178    0.7108162258
H479       H    0.5300550109    0.3959003428    0.6818110230
H480       H    0.4699449724    0.3958996782    0.8181870376
H481       H    0.4699442924    0.3302943512    0.8181877603
H482       H    0.5300543309    0.3302950158    0.6818117456
C463       C    0.3819469559    0.4816743474    0.7882112185
C464       C    0.4007974228    0.5000008634    0.7499997553
C465       C    0.3819482778    0.5183276003    0.7117880732
C466       C    0.3442486659    0.5183278212    0.7117878543
C467       C    0.3253981991    0.5000013052    0.7499993175
C468       C    0.3442473441    0.4816745683    0.7882109996
H469       H    0.3959002191    0.4681078020    0.8164977884
H470       H    0.3959007298    0.5318934023    0.6835028747
H471       H    0.3302954028    0.5318943667    0.6835012845
H472       H    0.3302948920    0.4681087663    0.8164961981
C453       C    0.5641044328    0.7701477972    0.6457564504
C454       C    0.5376991805    0.7876978155    0.6746015331
C455       C    0.5301437923    0.8240975724    0.6657470331
C456       C    0.5489936564    0.8429473111    0.6280474506
C457       C    0.5753989087    0.8253972928    0.5992023679
C458       C    0.5829542969    0.7889975359    0.6080568679
H459       H    0.5696973825    0.7432025226    0.6523110803
H460       H    0.5105984793    0.8370891855    0.6870977806
H461       H    0.5434007067    0.8698925857    0.6214928207
H462       H    0.6024996100    0.7760059228    0.5867061204
C443       C    0.4763814096    0.8197747915    0.8451039569
C444       C    0.4623006565    0.7876993614    0.8253981449
C445       C    0.4293700806    0.7744737452    0.8433918814
C446       C    0.4105202578    0.7933235591    0.8810914299
C447       C    0.4246010108    0.8253989892    0.9007972420
C448       C    0.4575315868    0.8386246054    0.8828035055
H449       H    0.5007585892    0.8295651826    0.8317839182
H450       H    0.4189465151    0.7507312073    0.8288062787
H451       H    0.3861430782    0.7835331680    0.8944114686
H452       H    0.4679551523    0.8623671433    0.8973891082
C433       C    0.4728392489    0.6557527643    0.7756200723
C434       C    0.5000002217    0.6746027418    0.7499989882
C435       C    0.5271609714    0.6557531076    0.7243782288
C436       C    0.5271607483    0.6180534957    0.7243785535
C437       C    0.4999997756    0.5992035182    0.7499996375
C438       C    0.4728390259    0.6180531525    0.7756203969
H439       H    0.4527332394    0.6697063897    0.7945860889
H440       H    0.5472662864    0.6697051974    0.7054127827
H441       H    0.5472667579    0.6040998704    0.7054125368
H442       H    0.4527337109    0.6041010626    0.7945858431
C423       C    0.2280492054    0.5676535276    0.3488968202
C424       C    0.2122999217    0.5377008114    0.3253997979
C425       C    0.1777008339    0.5265979174    0.3396023347
C426       C    0.1588510298    0.5454477396    0.3773018938
C427       C    0.1746003135    0.5754004558    0.4007989161
C428       C    0.2091994013    0.5865033498    0.3865963793
H429       H    0.2536615171    0.5758725530    0.3383832540
H430       H    0.1660421752    0.5044266720    0.3222103718
H431       H    0.1332387181    0.5372287142    0.3878154600
H432       H    0.2208580600    0.6086745952    0.4039883422
C413       C    0.1780377028    0.4620766453    0.0959938488
C414       C    0.1746013196    0.4246026454    0.0992036233
C415       C    0.1900149713    0.4059783698    0.1401128241
C416       C    0.2088650060    0.4248280939    0.1778122505
C417       C    0.2123013892    0.4623020938    0.1746024760
C418       C    0.1968877375    0.4809263695    0.1336932752
H419       H    0.1666275970    0.4758634468    0.0657104144
H420       H    0.1874718605    0.3782396588    0.1424899824
H421       H    0.2202751118    0.4110412925    0.2080956849
H422       H    0.1994308483    0.5086650804    0.1313161169
C403       C    0.5444813988    0.7714640453    0.3725517074
C404       C    0.5376995214    0.7876984323    0.3253985677
C405       C    0.5497674873    0.8227826951    0.3159448943
C406       C    0.5686173306    0.8416325709    0.3536443605
C407       C    0.5753992080    0.8253981839    0.4007975002
C408       C    0.5633312421    0.7903139211    0.4102511736
H409       H    0.5355479695    0.7454925780    0.3795498813
H410       H    0.5447479476    0.8348004410    0.2810420087
H411       H    0.5775507599    0.8676040382    0.3466461867
H412       H    0.5683507818    0.7782961752    0.4451540592
C393       C    0.4490533451    0.8222639915    0.1847108908
C394       C    0.4623000873    0.7876999265    0.1746005146
C395       C    0.4566969959    0.7719856908    0.1267906161
C396       C    0.4378471623    0.7908355201    0.0890910938
C397       C    0.4246004200    0.8253995852    0.0992014700
C398       C    0.4302035114    0.8411138209    0.1470113685
H399       H    0.4532010881    0.8338966076    0.2201026339
H400       H    0.4665020101    0.7464009953    0.1193054385
H401       H    0.4336994193    0.7792029041    0.0536993507
H402       H    0.4203984972    0.8666985163    0.1544965461
C383       C    0.8053691508    0.4301272992    0.3132522901
C384       C    0.7876973274    0.4623018864    0.3253983327
C385       C    0.7888755191    0.4756267280    0.3752437998
C386       C    0.8077255343    0.4567769823    0.4129432243
C387       C    0.8253973577    0.4246023951    0.4007971817
C388       C    0.8242191659    0.4112775535    0.3509517146
H389       H    0.8044969829    0.4202634554    0.2763536976
H390       H    0.7757949356    0.4994426648    0.3842358348
H391       H    0.8085977022    0.4666408261    0.4498418168
H392       H    0.8372997495    0.3874616167    0.3419596796
C373       C    0.8235747737    0.5288903903    0.1639682144
C374       C    0.7876984513    0.5377000892    0.1746020580
C375       C    0.7706719476    0.5653595962    0.1475363432
C376       C    0.7895217663    0.5842094043    0.1098367848
C377       C    0.8253980887    0.5753997055    0.0992029411
C378       C    0.8424245924    0.5477401985    0.1262686559
H379       H    0.8361788089    0.5084151709    0.1840038734
H380       H    0.7441158824    0.5718813793    0.1554066200
H381       H    0.7769177311    0.6046846238    0.0898011258
H382       H    0.8689806576    0.5412184154    0.1183983792
C363       C    0.3819469947    0.5039598455    0.2958312212
C364       C    0.4007974038    0.5000006536    0.2500001079
C365       C    0.3819482012    0.4960413988    0.2041687413
C366       C    0.3442485893    0.4960413360    0.2041684878
C367       C    0.3253981801    0.5000005280    0.2499996011
C368       C    0.3442473828    0.5039597827    0.2958309677
H369       H    0.3959003005    0.5068907224    0.3297583367
H370       H    0.3959006106    0.4931106937    0.1702432637
H371       H    0.3302952835    0.4931104591    0.1702413722
H372       H    0.3302949734    0.5068904879    0.3297564453
C353       C    0.5094463415    0.6180538945    0.2058035438
C354       C    0.4999997077    0.5992036018    0.2500005193
C355       C    0.4905532950    0.6180529209    0.2941976646
C356       C    0.4905535160    0.6557525327    0.2941978345
C357       C    0.5000001497    0.6746028254    0.2500008591
C358       C    0.5094465625    0.6557535063    0.2058037137
H359       H    0.5164391406    0.6041005025    0.1730861765
H360       H    0.4835606313    0.6041005977    0.3269135075
H361       H    0.4835607169    0.6697059247    0.3269152019
H362       H    0.5164392262    0.6697058295    0.1730878708
C343       C    0.6180517018    0.5121865407    0.2928359435
C344       C    0.5992016094    0.5000003950    0.2500006605
C345       C    0.6180511288    0.4878142066    0.2071656766
C346       C    0.6557507406    0.4878141640    0.2071659756
C347       C    0.6746008331    0.5000003097    0.2500012587
C348       C    0.6557513136    0.5121864981    0.2928362426
H349       H    0.6040981614    0.5212074854    0.3245449576
H350       H    0.6040989539    0.4787936792    0.1754577967
H351       H    0.6697042810    0.4787932193    0.1754569616
H352       H    0.6697034885    0.5212070255    0.3245441224
C333       C    0.4246288101    0.2134677987    0.3265921603
C334       C    0.4623009266    0.2123019362    0.3253978950
C335       C    0.4811232425    0.1922861279    0.3619030686
C336       C    0.4622734419    0.1734361822    0.3996025076
C337       C    0.4246013254    0.1746020447    0.4007967729
C338       C    0.4057790095    0.1946178529    0.3642915993
H339       H    0.4106954075    0.2282846957    0.2995688500
H340       H    0.5090086049    0.1914225272    0.3610202329
H341       H    0.4762068446    0.1586192852    0.4266258179
H342       H    0.3778936471    0.1954814537    0.3651744350
C323       C    0.5700436898    0.1949038943    0.1866412114
C324       C    0.5376996098    0.2123004013    0.1746010602
C325       C    0.5242053548    0.2108470745    0.1248613825
C326       C    0.5430551798    0.1919972406    0.0871618560
C327       C    0.5753992598    0.1746007336    0.0992020073
C328       C    0.5888935148    0.1760540604    0.1489416850
H329       H    0.5800329434    0.1959797336    0.2234614923
H330       H    0.5002639548    0.2237238611    0.1159477312
H331       H    0.5330659262    0.1909214012    0.0503415751
H332       H    0.6128349149    0.1631772737    0.1578553362
C313       C    0.5304901153    0.3442480122    0.2665085999
C314       C    0.4999995040    0.3253977864    0.2500009008
C315       C    0.4695089684    0.3442471724    0.2334930259
C316       C    0.4695090441    0.3819467843    0.2334928501
C317       C    0.4999996554    0.4007970100    0.2500005492
C318       C    0.5304901910    0.3819476240    0.2665084241
H319       H    0.5530610313    0.3302945706    0.2787287151
H320       H    0.4469389613    0.3302948989    0.2212735633
H321       H    0.4469381281    0.3959002259    0.2212727349
H322       H    0.5530601981    0.3958998976    0.2787278867
loop_
_geom_bond_atom_site_label_1
_geom_bond_atom_site_label_2
_geom_bond_distance
_geom_bond_site_symmetry_2
_ccdc_geom_bond_type
C383       H389 1.140       .   S
O302       C312 1.250       .   A
O302      Cu307 1.951       .   S
O303      Cu308 1.951       .   S
O303       C312 1.250       .   A
O300       C310 1.250       .   A
O300      Cu307 1.951       .   S
O301       C311 1.250       .   A
O301      Cu307 1.951       .   S
O306      Cu308 1.951       .   S
O306       C309 1.250       .   A
O304       C311 1.251       .   A
O304      Cu308 1.951       .   S
O305       C310 1.250       .   A
O305      Cu308 1.951       .   S
C508       H512 1.140       .   S
C505       H510 1.140       .   S
C506       H511 1.140       .   S
C513       H519 1.140       .   S
C693       H699 1.140       .   S
C686       H691 1.140       .   S
C685       H690 1.140       .   S
C688       H692 1.140       .   S
C563       C568 1.540       .   A
C563       H569 1.140       .   S
C563       C564 1.540       .   A
C566       H571 1.140       .   S
C566       C567 1.540       .   A
C565       C566 1.540       .   A
C567       C269 1.540   1_655   S
C567       C568 1.540       .   A
C564       C103 1.540       .   S
C564       C565 1.540       .   A
C565       H570 1.140       .   S
O236       C239 1.250       .   A
O236      Cu238 1.951       .   S
O232       C242 1.250       .   A
O233       C242 1.250       .   A
C242       C757 1.540       .   S
O234       C241 1.251       .   A
O234      Cu238 1.951       .   S
O235       C240 1.250       .   A
O235      Cu238 1.951       .   S
O232      Cu237 1.951       .   S
O233      Cu238 1.951       .   S
O230      Cu237 1.951       .   S
O230       C240 1.250       .   A
O231      Cu237 1.951       .   S
O231       C241 1.250       .   A
C643       H649 1.140       .   S
C543       H549 1.140       .   S
C458       H462 1.140       .   S
C455       H460 1.140       .   S
C456       H461 1.140       .   S
C663       C664 1.540       .   A
C663       C668 1.540       .   A
C663       H669 1.140       .   S
C338       H342 1.140       .   S
C336       H341 1.140       .   S
C463       H469 1.140       .   S
C328       H332 1.140       .   S
C323       C328 1.540       .   A
C327       C328 1.540       .   A
C475       H480 1.140       .   S
C476       H481 1.140       .   S
O278      Cu280 1.951       .   S
Cu279     Cu280 2.630       .   S
O276      Cu280 1.951       .   S
O277      Cu280 1.951       .   S
O275      Cu280 1.951       .   S
O278       C281 1.250       .   A
O162       C172 1.250       .   A
O162      Cu168 1.951       .   S
O163       C173 1.250       .   A
O163      Cu168 1.951       .   S
O160       C170 1.250       .   A
O160      Cu168 1.951       .   S
O161       C171 1.250       .   A
O161      Cu168 1.951       .   S
O166       C171 1.250       .   A
O166      Cu169 1.951       .   S
O167       C170 1.250       .   A
O167      Cu169 1.951       .   S
O164       C173 1.250       .   A
O164      Cu169 1.951       .   S
O165       C172 1.251       .   A
O165      Cu169 1.951       .   S
C746       C747 1.540       .   A
C745       C746 1.540       .   A
C746       H751 1.140       .   S
C747       C174 1.540       .   S
C747       C748 1.540       .   A
C744       C745 1.540       .   A
C743       C744 1.540       .   A
C309       C744 1.540       .   S
C745       H750 1.140       .   S
C743       H749 1.140       .   S
C743       C748 1.540       .   A
C197       H200 1.140       .   S
C483       C484 1.540       .   A
C484       C485 1.540       .   A
C484        C73 1.540       .   S
C487       C488 1.540       .   A
C487        C94 1.540       .   S
C486       C487 1.540       .   A
C483       H489 1.140       .   S
C44         C45 1.540       .   A
C44        C367 1.540       .   S
C43         C44 1.540       .   A
C45         C46 1.540       .   A
C45         H49 1.140       .   S
C46         C47 1.540       .   A
C46        C417 1.540       .   S
C47         H50 1.140       .   S
C42         C47 1.540       .   A
C756       H761 1.140       .   S
C755       H760 1.140       .   S
C42        C424 1.540       .   S
C42         C43 1.540       .   A
C43         H48 1.140       .   S
C763       H769 1.140       .   S
C635       H640 1.140       .   S
C636       H641 1.140       .   S
C593       H599 1.140       .   S
C593       C598 1.540       .   A
C593       C594 1.540       .   A
C597       C598 1.540       .   A
C596       C597 1.540       .   A
C597       C133 1.540   1_465   S
C596       H601 1.140       .   S
C595       C596 1.540       .   A
C595       H600 1.140       .   S
C594       C595 1.540       .   A
C594       C120 1.540       .   S
C598       H602 1.140       .   S
Cu209     Cu210 2.630       .   S
O208      Cu210 1.951       .   S
O207      Cu210 1.951       .   S
O206      Cu210 1.951       .   S
O205      Cu210 1.951       .   S
C357       C358 1.540       .   A
C358       H362 1.140       .   S
C353       C358 1.540       .   A
C698       H702 1.140       .   S
C693       C698 1.540       .   A
C697       C698 1.540       .   A
C646       C647 1.540       .   A
C647       C295 1.540       .   S
C647       C648 1.540       .   A
C343       C348 1.540       .   A
C348       H352 1.140       .   S
C347       C348 1.540       .   A
C646       H651 1.140       .   S
C645       C646 1.540       .   A
C343       H349 1.140       .   S
C343       C344 1.540       .   A
C693       C694 1.540       .   A
C694       C695 1.540       .   A
C694       C155 1.540       .   S
C695       H700 1.140       .   S
C695       C696 1.540       .   A
C696       H701 1.140       .   S
C696       C697 1.540       .   A
C697       C170 1.540       .   S
C488       H492 1.140       .   S
C486       H491 1.140       .   S
C644       C645 1.540       .   A
C643       C644 1.540       .   A
C644       C137 1.540       .   S
C315       H320 1.140       .   S
C314       C315 1.540       .   A
C315       C316 1.540       .   A
C493       H499 1.140       .   S
C668       H672 1.140       .   S
C316       H321 1.140       .   S
C316       C317 1.540       .   A
C526       C527 1.540       .   A
C525       C526 1.540       .   A
C526       H531 1.140       .   S
C284       C527 1.540       .   S
C527       C528 1.540       .   A
C524       C525 1.540       .   A
C523       C524 1.540       .   A
C524        C87 1.540       .   S
C525       H530 1.140       .   S
C523       H529 1.140       .   S
C523       C528 1.540       .   A
C785       H790 1.140       .   S
C786       H791 1.140       .   S
C788       H792 1.140       .   S
O274       C284 1.250       .   A
O275       C284 1.250       .   A
C283       C777 1.540       .   S
O273       C283 1.250       .   A
O276       C283 1.251       .   A
O272       C282 1.250       .   A
O277       C282 1.250       .   A
C282       C617 1.540       .   S
O271       C281 1.250       .   A
C337       C281 1.540       .   S
O17        Cu19 1.951       .   S
O16        Cu19 1.951       .   S
O15        Cu19 1.951       .   S
O14        Cu19 1.951       .   S
Cu18       Cu19 2.630       .   S
O13        Cu18 1.951       .   S
O12        Cu18 1.951       .   S
O11        Cu18 1.951       .   S
O10        Cu18 1.951       .   S
C184       H189 1.140       .   S
C447       C448 1.540       .   A
C448       H452 1.140       .   S
C443       C448 1.540       .   A
C478       H482 1.140       .   S
C444       C445 1.540       .   A
C444        C51 1.540       .   S
C443       C444 1.540       .   A
C446       C447 1.540       .   A
C447       C253 1.540       .   S
C445       C446 1.540       .   A
C446       H451 1.140       .   S
C177       H181 1.140       .   S
C175       H180 1.140       .   S
C443       H449 1.140       .   S
C179       H182 1.140       .   S
O299      Cu307 1.951       .   S
O299       C309 1.250       .   A
C418       H422 1.140       .   S
C415       H420 1.140       .   S
C608       H612 1.140       .   S
O290      Cu294 1.951       .   S
O290       C297 1.251       .   A
O291      Cu294 1.951       .   S
O291       C296 1.250       .   A
O292      Cu294 1.951       .   S
O292       C295 1.250       .   A
C241       C537 1.540   1_554   S
C376       H381 1.140       .   S
C423       H429 1.140       .   S
O17         C20 1.250       .   A
O16         C21 1.250       .   A
O15         C22 1.251       .   A
O14         C23 1.250       .   A
O13         C23 1.250       .   A
O12         C22 1.250       .   A
O11         C21 1.250       .   A
O10         C20 1.250       .   A
C536       H541 1.140       .   S
C535       H540 1.140       .   S
C538       H542 1.140       .   S
O264       C267 1.250       .   A
O264      Cu266 1.951       .   S
O261       C270 1.250       .   A
O261      Cu266 1.951       .   S
O260      Cu265 1.951       .   S
O260       C270 1.250       .   A
O263       C268 1.250       .   A
O263      Cu266 1.951       .   S
O262       C269 1.251       .   A
O262      Cu266 1.951       .   S
O229       C239 1.250       .   A
C239       C557 1.540   1_554   S
C655       H660 1.140       .   S
C656       H661 1.140       .   S
C658       H662 1.140       .   S
C623       C628 1.540       .   A
C628       H632 1.140       .   S
C627       C628 1.540       .   A
C623       C624 1.540       .   A
C623       H629 1.140       .   S
C625       H630 1.140       .   S
C624       C625 1.540       .   A
C625       C626 1.540       .   A
C624       C128 1.540       .   S
C627       C255 1.540   1_545   S
C626       C627 1.540       .   A
C626       H631 1.140       .   S
C325       H330 1.140       .   S
C326       H331 1.140       .   S
C333       H339 1.140       .   S
C240       C377 1.540       .   S
C513       C518 1.540       .   A
C518       H522 1.140       .   S
C517       C518 1.540       .   A
C575       H580 1.140       .   S
C723       H729 1.140       .   S
O246      Cu251 1.951       .   S
O245      Cu251 1.951       .   S
O244      Cu251 1.951       .   S
O243      Cu251 1.951       .   S
Cu251     Cu252 2.630       .   S
O247      Cu252 1.951       .   S
O250      Cu252 1.951       .   S
O249      Cu252 1.951       .   S
O248      Cu252 1.951       .   S
C578       H582 1.140       .   S
C716       H721 1.140       .   S
C715       H720 1.140       .   S
C718       H722 1.140       .   S
C714       C715 1.540       .   A
C715       C716 1.540       .   A
C173       C714 1.540       .   S
C713       C714 1.540       .   A
C178       C717 1.540   1_565   S
C716       C717 1.540       .   A
C717       C718 1.540       .   A
C154       H158 1.140       .   S
C156       H159 1.140       .   S
C496       H501 1.140       .   S
C496       C497 1.540       .   A
C495       C496 1.540       .   A
C152       H157 1.140       .   S
C494       C495 1.540       .   A
C493       C494 1.540       .   A
C494        C74 1.540       .   S
C495       H500 1.140       .   S
C193       H198 1.140       .   S
C147       H150 1.140       .   S
C497       C498 1.540       .   A
C498       H502 1.140       .   S
C493       C498 1.540       .   A
C657       C658 1.540       .   A
C653       C658 1.540       .   A
C654       C655 1.540       .   A
C654       C144 1.540       .   S
C653       C654 1.540       .   A
C655       C656 1.540       .   A
C656       C657 1.540       .   A
C657       C226 1.540   1_565   S
C653       H659 1.140       .   S
C515       H520 1.140       .   S
C515       C516 1.540       .   A
C514       C515 1.540       .   A
C513       C514 1.540       .   A
C514       C227 1.540       .   S
C705       H710 1.140       .   S
C606       H611 1.140       .   S
C605       H610 1.140       .   S
C706       H711 1.140       .   S
C613       H619 1.140       .   S
C585       H590 1.140       .   S
C586       H591 1.140       .   S
O221      Cu224 1.951       .   S
O219      Cu224 1.951       .   S
O222      Cu224 1.951       .   S
Cu223     Cu224 2.630       .   S
O220      Cu224 1.951       .   S
C568       H572 1.140       .   S
C37         C38 1.540       .   A
C38         H41 1.140       .   S
C33         C38 1.540       .   A
O218      Cu223 1.951       .   S
O215      Cu223 1.951       .   S
O216      Cu223 1.951       .   S
O217      Cu223 1.951       .   S
C34         C35 1.540       .   A
C357        C35 1.540       .   S
C35         C36 1.540       .   A
C34         H39 1.140       .   S
C33         C34 1.540       .   A
C36         C37 1.540       .   A
C37        C404 1.540       .   S
C36         H40 1.140       .   S
C33        C394 1.540       .   S
C152       C153 1.540       .   A
C153       C674 1.540       .   S
C153       C154 1.540       .   A
C151       C152 1.540       .   A
C151       C156 1.540       .   A
C684       C151 1.540       .   S
C405       H410 1.140       .   S
C404       C405 1.540       .   A
C405       C406 1.540       .   A
C155       C156 1.540       .   A
C154       C155 1.540       .   A
C408       H412 1.140       .   S
C403       C408 1.540       .   A
C407       C408 1.540       .   A
C393       C398 1.540       .   A
C393       C394 1.540       .   A
C393       H399 1.140       .   S
C52         H57 1.140       .   S
C736       H741 1.140       .   S
C397       C398 1.540       .   A
C256       C397 1.540   1_556   S
C396       C397 1.540       .   A
C713       H719 1.140       .   S
C398       H402 1.140       .   S
C54         H58 1.140       .   S
C56         H59 1.140       .   S
C416       H421 1.140       .   S
C648       H652 1.140       .   S
O258       C268 1.250       .   A
O258      Cu265 1.951       .   S
O259       C269 1.250       .   A
O259      Cu265 1.951       .   S
O257      Cu265 1.951       .   S
O257       C267 1.250       .   A
O250       C253 1.250       .   A
C503       H509 1.140       .   S
C427       C270 1.540       .   S
O229      Cu237 1.951       .   S
C474       C475 1.540       .   A
C475       C476 1.540       .   A
C476       C477 1.540       .   A
C477       C478 1.540       .   A
C477        C85 1.540       .   S
C577       C578 1.540       .   A
C573       C578 1.540       .   A
C378       H382 1.140       .   S
C473       C474 1.540       .   A
C473       H479 1.140       .   S
C473       C478 1.540       .   A
O221       C226 1.250       .   A
O220       C227 1.251       .   A
O62        Cu68 1.951       .   S
O63        Cu68 1.951       .   S
O60        Cu68 1.951       .   S
O61        Cu68 1.951       .   S
Cu68       Cu69 2.630       .   S
O66        Cu69 1.951       .   S
O67        Cu69 1.951       .   S
O64        Cu69 1.951       .   S
O65        Cu69 1.951       .   S
C573       C574 1.540       .   A
C573       H579 1.140       .   S
C335       H340 1.140       .   S
C368       H372 1.140       .   S
C365       H370 1.140       .   S
C366       H371 1.140       .   S
C373       H379 1.140       .   S
C106       H109 1.140       .   S
C466       H471 1.140       .   S
C468       H472 1.140       .   S
C375       H380 1.140       .   S
C556       C557 1.540       .   A
C557       C558 1.540       .   A
C548       H552 1.140       .   S
C545       H550 1.140       .   S
C753       C758 1.540       .   A
C757       C758 1.540       .   A
C758       H762 1.140       .   S
C613       C618 1.540       .   A
C613       C614 1.540       .   A
C614       C615 1.540       .   A
C614       C124 1.540       .   S
C615       H620 1.140       .   S
C615       C616 1.540       .   A
C616       H621 1.140       .   S
C616       C617 1.540       .   A
C617       C618 1.540       .   A
C618       H622 1.140       .   S
C753       C754 1.540       .   A
C753       H759 1.140       .   S
C754       C755 1.540       .   A
C755       C756 1.540       .   A
C754       C183 1.540       .   S
C756       C757 1.540       .   A
C366       C367 1.540       .   A
C367       C368 1.540       .   A
C583       H589 1.140       .   S
C363       C364 1.540       .   A
C363       H369 1.140       .   S
C363       C368 1.540       .   A
C453       C458 1.540       .   A
C457       C458 1.540       .   A
C78         C79 1.540       .   A
C74         C79 1.540       .   A
C79         H82 1.140       .   S
C77         C78 1.540       .   A
C507        C78 1.540       .   S
C708       H712 1.140       .   S
C726       C727 1.540       .   A
C187       C727 1.540   1_565   S
C727       C728 1.540       .   A
C713       C718 1.540       .   A
C474        C71 1.540       .   S
O61         C71 1.250       .   A
O66         C71 1.250       .   A
O60         C70 1.250       .   A
O67         C70 1.250       .   A
C70        C437 1.540       .   S
O63         C73 1.250       .   A
O64         C73 1.250       .   A
O62         C72 1.250       .   A
C464        C72 1.540       .   S
O65         C72 1.251       .   A
C75         H80 1.140       .   S
C74         C75 1.540       .   A
C75         C76 1.540       .   A
C77         H81 1.140       .   S
C76         C77 1.540       .   A
C467        C76 1.540       .   S
C102       H107 1.140       .   S
C97        H100 1.140       .   S
C213       C497 1.540   1_554   S
Cu265     Cu266 2.630       .   S
C104       H108 1.140       .   S
C354       C355 1.540       .   A
C355       C356 1.540       .   A
C355       H360 1.140       .   S
C354        C21 1.540       .   S
C353       C354 1.540       .   A
C356       C357 1.540       .   A
C516       H521 1.140       .   S
C516       C517 1.540       .   A
C728       H732 1.140       .   S
C723       C728 1.540       .   A
C353       H359 1.140       .   S
C171       C724 1.540       .   S
C724       C725 1.540       .   A
C723       C724 1.540       .   A
C725       C726 1.540       .   A
C725       H730 1.140       .   S
C726       H731 1.140       .   S
O248       C255 1.251       .   A
C423       C428 1.540       .   A
C428       H432 1.140       .   S
C427       C428 1.540       .   A
O289      Cu294 1.951       .   S
Cu293     Cu294 2.630       .   S
C683       C688 1.540       .   A
C687       C688 1.540       .   A
O288      Cu293 1.951       .   S
O287      Cu293 1.951       .   S
O286      Cu293 1.951       .   S
O285      Cu293 1.951       .   S
C683       H689 1.140       .   S
C683       C684 1.540       .   A
C687       C298 1.540       .   S
C686       C687 1.540       .   A
C685       C686 1.540       .   A
C684       C685 1.540       .   A
C665       C666 1.540       .   A
C666       C667 1.540       .   A
C666       H671 1.140       .   S
O243       C253 1.250       .   A
C676       H681 1.140       .   S
C664       C665 1.540       .   A
C665       H670 1.140       .   S
C783       H789 1.140       .   S
C534       C535 1.540       .   A
C535       C536 1.540       .   A
C534        C92 1.540       .   S
C533       C534 1.540       .   A
C537       C538 1.540       .   A
C536       C537 1.540       .   A
C664       C142 1.540       .   S
C778       H782 1.140       .   S
C776       H781 1.140       .   S
C775       H780 1.140       .   S
C311       C667 1.540       .   S
C667       C668 1.540       .   A
C395       H400 1.140       .   S
C394       C395 1.540       .   A
C395       C396 1.540       .   A
C433       C438 1.540       .   A
C438       H442 1.140       .   S
C437       C438 1.540       .   A
C128       C129 1.540       .   A
C127       C128 1.540       .   A
C129       H132 1.140       .   S
C124       C129 1.540       .   A
C138       H141 1.140       .   S
O112       C122 1.250       .   A
C584       C122 1.540       .   S
O115       C122 1.251       .   A
O113       C123 1.250       .   A
C604       C123 1.540       .   S
O114       C123 1.250       .   A
O110       C120 1.250       .   A
O117       C120 1.250       .   A
O111       C121 1.250       .   A
C577       C121 1.540   1_655   S
O116       C121 1.250       .   A
C587       C126 1.540   1_565   S
C126       C127 1.540       .   A
C125       C126 1.540       .   A
C127       H131 1.140       .   S
C124       C125 1.540       .   A
C125       H130 1.140       .   S
C748       H752 1.140       .   S
C426       H431 1.140       .   S
C425       H430 1.140       .   S
O289       C298 1.250       .   A
O288       C298 1.250       .   A
C433       H439 1.140       .   S
O287       C297 1.250       .   A
O286       C296 1.250       .   A
O285       C295 1.250       .   A
C93         H98 1.140       .   S
C92         C93 1.540       .   A
C93         C94 1.540       .   A
C92         C97 1.540       .   A
C96         C97 1.540       .   A
C544        C96 1.540       .   S
C95         C96 1.540       .   A
C95         H99 1.140       .   S
C94         C95 1.540       .   A
C528       H532 1.140       .   S
C555       C556 1.540       .   A
C554       C555 1.540       .   A
C555       H560 1.140       .   S
C544       C545 1.540       .   A
C543       C544 1.540       .   A
C545       C546 1.540       .   A
C546       C547 1.540       .   A
C546       H551 1.140       .   S
C547       C297 1.540       .   S
C547       C548 1.540       .   A
O218       C228 1.250       .   A
O219       C228 1.250       .   A
C228       C737 1.540   1_546   S
O216       C226 1.250       .   A
O217       C227 1.250       .   A
O222       C225 1.250       .   A
O215       C225 1.250       .   A
C327       C225 1.540   1_554   S
C543       C548 1.540       .   A
C553       H559 1.140       .   S
C553       C554 1.540       .   A
C553       C558 1.540       .   A
Cu168     Cu169 2.630       .   S
O208       C211 1.250       .   A
C435       H440 1.140       .   S
C436       H441 1.140       .   S
C387       C388 1.540       .   A
C383       C388 1.540       .   A
C388       H392 1.140       .   S
C318       H322 1.140       .   S
C145       H149 1.140       .   S
C143       H148 1.140       .   S
Cu307     Cu308 2.630       .   S
C763       C768 1.540       .   A
C763       C764 1.540       .   A
C764       C185 1.540       .   S
C764       C765 1.540       .   A
C765       H770 1.140       .   S
C765       C766 1.540       .   A
C766       H771 1.140       .   S
C766       C767 1.540       .   A
C767       C768 1.540       .   A
C767       C268 1.540   1_655   S
C768       H772 1.140       .   S
C136       H140 1.140       .   S
C483       C488 1.540       .   A
C485       H490 1.140       .   S
C485       C486 1.540       .   A
C466       C467 1.540       .   A
C467       C468 1.540       .   A
C635       C636 1.540       .   A
C634       C635 1.540       .   A
C643       C648 1.540       .   A
C310       C457 1.540       .   S
C645       H650 1.140       .   S
C312       C407 1.540       .   S
C313       C314 1.540       .   A
C314         C5 1.540       .   S
C317       C318 1.540       .   A
C317        C20 1.540       .   S
C633       C634 1.540       .   A
C633       H639 1.140       .   S
C633       C638 1.540       .   A
C344        C22 1.540       .   S
C23        C364 1.540       .   S
C347        C26 1.540       .   S
C26         C27 1.540       .   A
C25         C26 1.540       .   A
C27         C28 1.540       .   A
C27         H31 1.140       .   S
C24         C29 1.540       .   A
C374        C24 1.540       .   S
C24         C25 1.540       .   A
C25         H30 1.140       .   S
C576       H581 1.140       .   S
C384        C28 1.540       .   S
C28         C29 1.540       .   A
C29         H32 1.140       .   S
C533       C538 1.540       .   A
C533       H539 1.140       .   S
Cu237     Cu238 2.630       .   S
C738       H742 1.140       .   S
C735       H740 1.140       .   S
C134       H139 1.140       .   S
C364       C365 1.540       .   A
C365       C366 1.540       .   A
C463       C468 1.540       .   A
C184       C185 1.540       .   A
C183       C184 1.540       .   A
C185       C186 1.540       .   A
C186       H190 1.140       .   S
C186       C187 1.540       .   A
C187       C188 1.540       .   A
O249       C254 1.250       .   A
C183       C188 1.540       .   A
O247       C256 1.250       .   A
O246       C256 1.250       .   A
O245       C255 1.250       .   A
O244       C254 1.250       .   A
C188       H191 1.140       .   S
C636       C637 1.540       .   A
C84         H89 1.140       .   S
C504       C267 1.540       .   S
C637       C211 1.540   1_656   S
C637       C638 1.540       .   A
C503       C508 1.540       .   A
C507       C508 1.540       .   A
C465       C466 1.540       .   A
C464       C465 1.540       .   A
C465       H470 1.140       .   S
C463       C464 1.540       .   A
C323       H329 1.140       .   S
C503       C504 1.540       .   A
C504       C505 1.540       .   A
C505       C506 1.540       .   A
C506       C507 1.540       .   A
C638       H642 1.140       .   S
C406       C407 1.540       .   A
C634       C135 1.540       .   S
C403       C404 1.540       .   A
C403       H409 1.140       .   S
C356       H361 1.140       .   S
C433       C434 1.540       .   A
C558       H562 1.140       .   S
C556       H561 1.140       .   S
C53        C434 1.540       .   S
C434       C435 1.540       .   A
C406       H411 1.140       .   S
C435       C436 1.540       .   A
C214       C677 1.540   1_455   S
O205       C214 1.250       .   A
O204       C214 1.250       .   A
C345       H350 1.140       .   S
O201       C211 1.250       .   A
O202       C212 1.250       .   A
C212       C414 1.540       .   S
O207       C212 1.250       .   A
O203       C213 1.250       .   A
O206       C213 1.251       .   A
C436       C437 1.540       .   A
C603       C608 1.540       .   A
C603       H609 1.140       .   S
C603       C604 1.540       .   A
C607       C608 1.540       .   A
C606       C607 1.540       .   A
C607       C146 1.540   1_455   S
C605       C606 1.540       .   A
C604       C605 1.540       .   A
C313       H319 1.140       .   S
C2           C3 1.540       .   A
C334         C3 1.540       .   S
C3           C4 1.540       .   A
C1           C2 1.540       .   A
C2           H7 1.140       .   S
C324         C1 1.540       .   S
C1           C6 1.540       .   A
C6           H9 1.140       .   S
C5           C6 1.540       .   A
C4           C5 1.540       .   A
C4           H8 1.140       .   S
C703       H709 1.140       .   S
C396       H401 1.140       .   S
C344       C345 1.540       .   A
O272      Cu279 1.951       .   S
O273      Cu279 1.951       .   S
O271      Cu279 1.951       .   S
O274      Cu279 1.951       .   S
C323       C324 1.540       .   A
C324       C325 1.540       .   A
C325       C326 1.540       .   A
C326       C327 1.540       .   A
C737       C738 1.540       .   A
C733       C738 1.540       .   A
C736       C737 1.540       .   A
C735       C736 1.540       .   A
C734       C735 1.540       .   A
C733       C734 1.540       .   A
C176       C734 1.540       .   S
C733       H739 1.140       .   S
C345       C346 1.540       .   A
C134       C135 1.540       .   A
C135       C136 1.540       .   A
C133       C134 1.540       .   A
C136       C137 1.540       .   A
C137       C138 1.540       .   A
C133       C138 1.540       .   A
C413       H419 1.140       .   S
C783       C788 1.540       .   A
C783       C784 1.540       .   A
C786       C787 1.540       .   A
C785       C786 1.540       .   A
C787       C788 1.540       .   A
C192       C787 1.540       .   S
C784       C254 1.540   1_544   S
C784       C785 1.540       .   A
C423       C424 1.540       .   A
C426       C427 1.540       .   A
C425       C426 1.540       .   A
C424       C425 1.540       .   A
C313       C318 1.540       .   A
C678       H682 1.140       .   S
C675       H680 1.140       .   S
C83         C88 1.540       .   A
C517        C83 1.540       .   S
C83         C84 1.540       .   A
C84         C85 1.540       .   A
C85         C86 1.540       .   A
C86         H90 1.140       .   S
C86         C87 1.540       .   A
C87         C88 1.540       .   A
C88         H91 1.140       .   S
C346       C347 1.540       .   A
O203      Cu209 1.951       .   S
O202      Cu209 1.951       .   S
O201      Cu209 1.951       .   S
C101       C554 1.540       .   S
O204      Cu209 1.951       .   S
C445       H450 1.140       .   S
C346       H351 1.140       .   S
C453       H459 1.140       .   S
C773       C778 1.540       .   A
C773       H779 1.140       .   S
C773       C774 1.540       .   A
C777       C778 1.540       .   A
C776       C777 1.540       .   A
C775       C776 1.540       .   A
C774       C775 1.540       .   A
C194       C774 1.540       .   S
C673       C678 1.540       .   A
C677       C678 1.540       .   A
C673       H679 1.140       .   S
C673       C674 1.540       .   A
C676       C677 1.540       .   A
C675       C676 1.540       .   A
C674       C675 1.540       .   A
C55         C56 1.540       .   A
C51         C56 1.540       .   A
C54         C55 1.540       .   A
C454        C55 1.540       .   S
C53         C54 1.540       .   A
C52         C53 1.540       .   A
C51         C52 1.540       .   A
C583       C584 1.540       .   A
C584       C585 1.540       .   A
C585       C586 1.540       .   A
C586       C587 1.540       .   A
C587       C588 1.540       .   A
C178       C179 1.540       .   A
C174       C179 1.540       .   A
C177       C178 1.540       .   A
C172       C704 1.540       .   S
C174       C175 1.540       .   A
C175       C176 1.540       .   A
C176       C177 1.540       .   A
C377       C378 1.540       .   A
C373       C378 1.540       .   A
C376       C377 1.540       .   A
C375       C376 1.540       .   A
C374       C375 1.540       .   A
C373       C374 1.540       .   A
C588       H592 1.140       .   S
C196       C197 1.540       .   A
C192       C197 1.540       .   A
C195       C196 1.540       .   A
C196       C707 1.540   1_455   S
C194       C195 1.540       .   A
C195       H199 1.140       .   S
C193       C194 1.540       .   A
C192       C193 1.540       .   A
C574       C575 1.540       .   A
C574       C105 1.540       .   S
C576       C577 1.540       .   A
C387       C296 1.540       .   S
C453       C454 1.540       .   A
C456       C457 1.540       .   A
C455       C456 1.540       .   A
C454       C455 1.540       .   A
C104       C105 1.540       .   A
C103       C104 1.540       .   A
C105       C106 1.540       .   A
C101       C106 1.540       .   A
C101       C102 1.540       .   A
C102       C103 1.540       .   A
Cu118     Cu119 2.630       .   S
O117      Cu119 1.951       .   S
O116      Cu119 1.951       .   S
O115      Cu119 1.951       .   S
O114      Cu119 1.951       .   S
O113      Cu118 1.951       .   S
O112      Cu118 1.951       .   S
O111      Cu118 1.951       .   S
O110      Cu118 1.951       .   S
C413       C414 1.540       .   A
C413       C418 1.540       .   A
C385       H390 1.140       .   S
C386       H391 1.140       .   S
C414       C415 1.540       .   A
C415       C416 1.540       .   A
C575       C576 1.540       .   A
C583       C588 1.540       .   A
C333       C338 1.540       .   A
C333       C334 1.540       .   A
C703       C708 1.540       .   A
C707       C708 1.540       .   A
C337       C338 1.540       .   A
C336       C337 1.540       .   A
C335       C336 1.540       .   A
C334       C335 1.540       .   A
C703       C704 1.540       .   A
C706       C707 1.540       .   A
C705       C706 1.540       .   A
C704       C705 1.540       .   A
C416       C417 1.540       .   A
C417       C418 1.540       .   A
C142       C143 1.540       .   A
C142       C147 1.540       .   A
C143       C144 1.540       .   A
C144       C145 1.540       .   A
C145       C146 1.540       .   A
C146       C147 1.540       .   A
C386       C387 1.540       .   A
C385       C386 1.540       .   A
C384       C385 1.540       .   A
C383       C384 1.540       .   A
