data_fog_v1-3c_B_Ch_v2-4c_Cu_1_Ch_1B_4H_Ch
_audit_creation_date              2020-02-03
_audit_creation_method            'tobacco_3.0'
_symmetry_space_group_name_H-M    'P1'
_symmetry_Int_Tables_number       1
_symmetry_cell_setting            triclinic
loop_
_symmetry_equiv_pos_as_xyz
  x,y,z
_cell_length_a                    40.80244829020637
_cell_length_b                    40.80244852146819
_cell_length_c                    39.67136401919007
_cell_angle_alpha                 90.00041919282847
_cell_angle_beta                  89.9995800818791
_cell_angle_gamma                 120.0055744539717
loop_
_atom_site_label
_atom_site_type_symbol
_atom_site_fract_x
_atom_site_fract_y
_atom_site_fract_z
C1         C    0.0100755799    0.7018790487    0.3081965350
C2         C    0.0037546912    0.6704566407    0.3332997010
C3         C    0.0351791113    0.6767775921    0.3584031660
C4         C    0.0729244201    0.7145209513    0.3584034650
C5         C    0.0792453088    0.7459433593    0.3333002990
C6         C    0.0478208887    0.7396224079    0.3081968340
H7         H   -0.0241897739    0.6425118344    0.3333012642
H8         H    0.0961866531    0.7192000972    0.3769865494
H9         H    0.0525031208    0.7628880684    0.2896121863
C10        C    0.2846807370    0.9764905879    0.3081946186
C11        C    0.3161036403    0.9828119762    0.3332973920
C12        C    0.3097836142    0.9513876259    0.3584005741
C13        C    0.2720406848    0.9136418874    0.3584009827
C14        C    0.2406177815    0.9073204991    0.3332982093
C15        C    0.2469378075    0.9387448494    0.3081950272
H16        H    0.3440481284    1.0107567595    0.3332988740
H17        H    0.2673622240    0.8903797060    0.3769838577
H18        H    0.2236717803    0.9340622474    0.2896106702
C19        C    0.9513154207    0.3098658141    0.6415223350
C20        C    0.9135739062    0.2721186611    0.6415213481
C21        C    0.9072517197    0.2406975380    0.6666292282
C22        C    0.9386710476    0.2470235679    0.6917380952
C23        C    0.9764125621    0.2847707209    0.6917390821
C24        C    0.9827347486    0.3161918439    0.6666312019
H25        H    0.8903105261    0.2674326227    0.6229324797
H26        H    0.9339909874    0.2237637755    0.7103244480
H27        H    1.0106781890    0.3441376748    0.6666337175
C28        C    0.7018253470    0.0101351608    0.6917291518
C29        C    0.6704025805    0.0038126423    0.6666257681
C30        C    0.6767215893    0.0352370161    0.6415230168
C31        C    0.7144633646    0.0729839084    0.6415236493
C32        C    0.7458861311    0.0793064269    0.6666270330
C33        C    0.7395671223    0.0478820531    0.6917297843
H34        H    0.6424589468   -0.0241329953    0.6666235153
H35        H    0.7191410724    0.0962461072    0.6229410931
H36        H    0.7628330482    0.0525654919    0.7103145932
O37        O    0.5163969864    0.9725648007    0.5405477353
O38        O    0.4396354582    0.9531183111    0.4733620358
O39        O    0.5069160280    0.9531880544    0.4735660234
O40        O    0.4491115090    0.9724950455    0.5403437328
O41        O    0.4795823791    1.0334399823    0.5263568625
O42        O    0.5373875380    1.0141343038    0.4595840571
O43        O    0.4701063283    1.0140632479    0.4593751655
O44        O    0.5468678565    1.0335097375    0.5265608650
Cu45      Cu    0.4752337364    0.9572793529    0.5082291480
Cu46      Cu    0.5112695784    1.0293486957    0.4916937528
C47        C    0.5429514363    1.0059052784    0.5434600296
C48        C    0.4435518785    0.9807227702    0.4564628712
C49        C    0.5306747794    0.9808130817    0.4567331327
C50        C    0.4558285353    1.0058149669    0.5431897682
O51        O    0.9530548433    0.4396978451    0.5265619456
O52        O    0.9725063303    0.5164606727    0.4593761265
O53        O    0.9724368581    0.4491802425    0.4595814464
O54        O    0.9531243146    0.5069831765    0.5263566078
O55        O    1.0140687378    0.5374533242    0.5403452530
O56        O    1.0333797694    0.4796496508    0.4735749499
O57        O    1.0334507534    0.5469308204    0.4733647718
O58        O    1.0139992665    0.4701679928    0.5405505909
Cu59      Cu    0.9572196595    0.4753005139    0.4916903661
Cu60      Cu    1.0292859372    0.5113281516    0.5082363514
C61        C    0.9806599149    0.4436145157    0.5434623840
C62        C    1.0058456818    0.5430141498    0.4564643335
C63        C    1.0057524031    0.4558897707    0.4567355585
C64        C    0.9807531937    0.5307388948    0.5431911589
C65        C    0.6184639937    0.9692731120    0.9733526524
C66        C    0.5806619189    0.9691505776    0.9734816526
C67        C    0.5743334718    0.9941939976    0.9986496825
C68        C    0.6058070995    1.0193599520    1.0236887123
C69        C    0.6436091742    1.0194824865    1.0235597120
C70        C    0.6499376213    0.9944390665    0.9983916821
H71        H    0.5573583347    0.9505194369    0.9549444962
H72        H    0.6011224049    1.0378985876    1.0423195915
H73        H    0.6779259002    0.9945315715    0.9982979593
C74        C    0.3680365047    1.0173590804    0.0265769032
C75        C    0.3365626512    0.9921934968    0.0015379061
C76        C    0.3428906520    0.9671500069   -0.0236303946
C77        C    0.3806925064    0.9672721006   -0.0237596981
C78        C    0.4121663600    0.9924376842    0.0012792990
C79        C    0.4058383591    1.0174811741    0.0264475997
H80        H    0.3085745355    0.9921013181    0.0016318535
H81        H    0.3853768707    0.9487334132   -0.0423907778
H82        H    0.4291421106    1.0361120401    0.0449847320
C83        C    1.0172728824    0.3681310449    0.9733564746
C84        C    0.9921098905    0.3366554146    0.9983950862
C85        C    0.9670678654    0.3429810645    1.0235669861
C86        C    0.9671888321    0.3807823448    1.0237002745
C87        C    0.9923518240    0.4122579751    0.9986616629
C88        C    1.0173938491    0.4059323252    0.9734897629
H89        H    0.9920185463    0.3086677238    0.9982981887
H90        H    0.9486512291    0.3854649687    1.0423340186
H91        H    1.0360227964    0.4292373921    0.9549529163
C92        C    0.9692050483    0.6185345548    0.0265828608
C93        C    0.9690816940    0.5807320746    0.0264531289
C94        C    0.9941241355    0.5744031946    0.0012842816
C95        C    1.0192899314    0.6058767947   -0.0237548339
C96        C    1.0194132857    0.6436792749   -0.0236251020
C97        C    0.9943708442    0.6500081550    0.0015437454
H98        H    0.9504506707    0.5574285107    0.0449903488
H99        H    1.0378278426    0.6011917796   -0.0423863183
H100       H    0.9944639563    0.6779967339    0.0016380099
C101       C    0.0347022498    0.3506921147    0.3598932920
C102       C    0.0032286564    0.3255288872    0.3348531492
C103       C    0.0095557416    0.3004853880    0.3096841340
C104       C    0.0473564202    0.3006051163    0.3095552617
C105       C    0.0788300136    0.3257683437    0.3345954046
C106       C    0.0725029284    0.3508118429    0.3597644197
H107       H   -0.0247585888    0.3254384598    0.3349467772
H108       H    0.0520401066    0.2820664221    0.2909236531
H109       H    0.0958064871    0.3694409645    0.3783024003
C110       C    0.2851424403    0.3026017519    0.3066914026
C111       C    0.2473412246    0.3024809522    0.3068190605
C112       C    0.2410130519    0.3275248833    0.3319867019
C113       C    0.2724860949    0.3526896140    0.3570266855
C114       C    0.3102873106    0.3528104137    0.3568990276
C115       C    0.3166154833    0.3277664826    0.3317313861
H116       H    0.2240380733    0.2838507177    0.2882811977
H117       H    0.2678016034    0.3712286279    0.3756572772
H118       H    0.3446031261    0.3278577032    0.3316386571
O119       O    0.2863943467    0.1063601376    0.1932306181
O120       O    0.3058335041    0.1831218081    0.1260472552
O121       O    0.3057711326    0.1158449131    0.1262489025
O122       O    0.2864567168    0.1736419336    0.1930289531
O123       O    0.3474022370    0.2041167221    0.2070138081
O124       O    0.3667151412    0.1463189619    0.1402386159
O125       O    0.3667790243    0.2135965966    0.1400321102
O126       O    0.3473398669    0.1368349260    0.2072154732
Cu127     Cu    0.2905528977    0.1419618044    0.1583606126
Cu128     Cu    0.3626204733    0.1779949298    0.1749021158
C129       C    0.3140017848    0.1102792992    0.2101287992
C130       C    0.3391715862    0.2096774349    0.1231339292
C131       C    0.3390875026    0.1225576333    0.1234003988
C132       C    0.3140858684    0.1973991009    0.2098623295
C133       C    0.6839658791    0.7014205210    0.3066962761
C134       C    0.6588007543    0.6699475443    0.3317361563
C135       C    0.6337564218    0.6762757808    0.3569032716
C136       C    0.6338772142    0.7140769940    0.3570305068
C137       C    0.6590423390    0.7455499707    0.3319906266
C138       C    0.6840866715    0.7392217342    0.3068235113
H139       H    0.6587095390    0.6419599034    0.3316437402
H140       H    0.6153379031    0.7187615327    0.3756607090
H141       H    0.7027171978    0.7625248365    0.2882857250
C142       C    0.6358727088    0.9518651175    0.3598952643
C143       C    0.6610360092    0.9833385909    0.3348550541
C144       C    0.6860797611    0.9770114742    0.3096863632
C145       C    0.6859602127    0.9392108841    0.3095578826
C146       C    0.6607969123    0.9077374107    0.3345980928
C147       C    0.6357531603    0.9140645274    0.3597667836
H148       H    0.6611263034    1.0113257706    0.3349483921
H149       H    0.7044990941    0.9345271743    0.2909265140
H150       H    0.6171239848    0.8907610574    0.3783048141
O151       O    0.8497374109    0.6392191190    0.2072195344
O152       O    0.7729774889    0.6197803501    0.1400344423
O153       O    0.8402565698    0.6198471017    0.1402367300
O154       O    0.7824534226    0.6391523557    0.2070172319
O155       O    0.8129264761    0.7000982821    0.1930337817
O156       O    0.8707302632    0.6807943402    0.1262581839
O157       O    0.8034505425    0.6807262764    0.1260509921
O158       O    0.8802104644    0.7001650453    0.1932360842
Cu159     Cu    0.8085747647    0.6239374415    0.1749009387
Cu160     Cu    0.8446131886    0.6960079539    0.1583695878
C161       C    0.8762927156    0.6725589532    0.2101334492
C162       C    0.7768952378    0.6473864423    0.1231370773
C163       C    0.8640162106    0.6474728794    0.1234051376
C164       C    0.7891717428    0.6724725160    0.2098653890
O165       O    0.8401069998    0.2137123605    0.1401603249
O166       O    0.7825741230    0.1367380851    0.2071233965
O167       O    0.8498250917    0.2039904756    0.2071272482
O168       O    0.7728511262    0.1464550708    0.1401564759
O169       O    0.8033167353    0.1159938320    0.1261242132
O170       O    0.8802899415    0.1735299937    0.1930901284
O171       O    0.8130397321    0.1062768462    0.1930911338
O172       O    0.8705726089    0.1832511217    0.1261280622
Cu173     Cu    0.8085591634    0.1780031479    0.1749245059
Cu174     Cu    0.8445875686    0.1419860589    0.1583269529
C175       C    0.8638237316    0.2098313202    0.1232709219
C176       C    0.7893230004    0.1101578866    0.2099805369
C177       C    0.8764059270    0.1972459768    0.2099801745
C178       C    0.7767408049    0.1227432300    0.1232712843
C179       C    0.3433776822    0.3685962839    0.9748709524
C180       C    0.3370575771    0.3371697672    0.9999689140
C181       C    0.3684852542    0.3434841353    1.0250658913
C182       C    0.4062330366    0.3812250202    1.0250649071
C183       C    0.4125531417    0.4126515369    0.9999669454
C184       C    0.3811254645    0.4063371687    0.9748699681
H185       H    0.3091112808    0.3092267925    0.9999714269
H186       H    0.4294976807    0.3858992927    1.0436431890
H187       H    0.3858071167    0.4296058709    0.9562891733
C188       C    0.6431059068    0.6180630774    1.0250675260
C189       C    0.6053591839    0.5803211326    1.0250681355
C190       C    0.5739343887    0.5740022367    0.9999659312
C191       C    0.5802563163    0.6054252857    0.9748631174
C192       C    0.6180030392    0.6431672304    0.9748625079
C193       C    0.6494278344    0.6494861263    0.9999647122
H194       H    0.6006761826    0.5570549976    1.0436525225
H195       H    0.5569938055    0.6007476615    0.9562809662
H196       H    0.6773733465    0.6774298854    0.9999624764
C197       C    0.9518061814    0.6359330933    0.6400333737
C198       C    0.9140048575    0.6358120718    0.6401617212
C199       C    0.9076765581    0.6608550929    0.6653303410
C200       C    0.9391495826    0.6860191356    0.6903706133
C201       C    0.9769509065    0.6861401571    0.6902422658
C202       C    0.9832792059    0.6610971359    0.6650736459
H203       H    0.8907017198    0.6171823466    0.6216236448
H204       H    0.9344649973    0.7045574759    0.7090019293
H205       H    1.0112669288    0.6611885208    0.6649804064
C206       C    0.7013682703    0.6840186658    0.6932323483
C207       C    0.7391692959    0.6841390827    0.6931048072
C208       C    0.7454972932    0.6590950351    0.6679371650
C209       C    0.7140242648    0.6339305705    0.6428970637
C210       C    0.6762232392    0.6338101536    0.6430246048
C211       C    0.6698952419    0.6588542012    0.6681922471
H212       H    0.7624724363    0.7027691203    0.7116427571
H213       H    0.7187086264    0.6153914704    0.6242664714
H214       H    0.6419077398    0.6587632638    0.6682848895
O215       O    0.6391643483    0.8497928044    0.7927088666
O216       O    0.6197239198    0.7730333494    0.8598949473
O217       O    0.6197902562    0.8403122184    0.8596911911
O218       O    0.6390980002    0.7825090280    0.7929126378
O219       O    0.7000434941    0.8129824402    0.8068975834
O220       O    0.6807370624    0.8707862704    0.8736712328
O221       O    0.6806694137    0.8035067616    0.8738798930
O222       O    0.7001098421    0.8802662167    0.8066938123
Cu223     Cu    0.6238818804    0.8086303590    0.8250278202
Cu224     Cu    0.6959518815    0.8446692070    0.8415609395
C225       C    0.6725042109    0.8763482197    0.7897955538
C226       C    0.6473295510    0.7769513464    0.8767932058
C227       C    0.6474154507    0.8640720448    0.8765232440
C228       C    0.6724183112    0.7892275213    0.7900655156
C229       C    0.3506251858    0.0347716958    0.6400316169
C230       C    0.3254621612    0.0032984520    0.6650721202
C231       C    0.3004183099    0.0096256131    0.6902406581
C232       C    0.3005374831    0.0474260179    0.6903686928
C233       C    0.3257005077    0.0788992617    0.6653281895
C234       C    0.3507443590    0.0725721006    0.6401596516
H235       H    0.3253721447   -0.0246885905    0.6649791123
H236       H    0.2819985282    0.0521097605    0.7089999481
H237       H    0.3693733304    0.0958754005    0.6216214041
C238       C    0.3025225946    0.2852318140    0.6932309519
C239       C    0.3023999747    0.2474296808    0.6931070645
C240       C    0.3274450516    0.2410987888    0.6679429366
C241       C    0.3526127484    0.2725700300    0.6429026960
C242       C    0.3527353683    0.3103721632    0.6430265833
C243       C    0.3276902914    0.3167030552    0.6681907113
H244       H    0.2837675441    0.2241278634    0.7116451178
H245       H    0.3711526106    0.2678835255    0.6242747051
H246       H    0.3277828598    0.3446913771    0.6682806488
O247       O    0.1829953230    0.3059775977    0.8738945479
O248       O    0.1062353260    0.2865368103    0.8067089328
O249       O    0.1735145415    0.2866038367    0.8069121466
O250       O    0.1157112000    0.3059105596    0.8736913192
O251       O    0.1461840706    0.3668561217    0.8597066098
O252       O    0.2039880519    0.3475507112    0.7929323412
O253       O    0.1367081966    0.3474823724    0.7927242234
O254       O    0.2134681935    0.3669231598    0.8599098385
Cu255     Cu    0.1418326560    0.2906949441    0.8415758056
Cu256     Cu    0.1778708635    0.3627650260    0.8250429656
C257       C    0.2095505472    0.3393175474    0.8768079102
C258       C    0.1101529723    0.3141424228    0.7898108611
C259       C    0.1972741194    0.3142292159    0.7900801206
C260       C    0.1224294002    0.3392307542    0.8765386507
O261       O    0.1159219693    0.8033901368    0.8738017614
O262       O    0.1734600765    0.8803583896    0.8068356776
O263       O    0.1062090335    0.8131060734    0.8068322812
O264       O    0.1831779109    0.8706473586    0.8738051580
O265       O    0.2136432808    0.8401841430    0.8597788825
O266       O    0.1366750628    0.7826422008    0.7928109089
O267       O    0.2039254464    0.8498951741    0.7928094021
O268       O    0.1463873391    0.7729269212    0.8597754859
Cu269     Cu    0.1419121062    0.8446560574    0.8415965831
Cu270     Cu    0.1779353094    0.8086292534    0.8250145804
C271       C    0.1226707588    0.7768090350    0.8766619697
C272       C    0.1971766568    0.8764762758    0.7899491938
C273       C    0.1100919749    0.7893899406    0.7899509097
C274       C    0.2097554407    0.8638953702    0.8766602538
O275       O    0.5469670677    0.5068498299    0.5264337327
O276       O    0.4699982432    0.4493124172    0.4594678767
O277       O    0.5372512930    0.5165627266    0.4594642062
O278       O    0.4797091187    0.4395946156    0.5264374004
O279       O    0.4492475548    0.4700622676    0.5404615023
O280       O    0.5067904854    0.5470296197    0.4734931655
O281       O    0.4395366793    0.4797800692    0.4734919785
O282       O    0.5165055037    0.5373174819    0.5404578346
Cu283     Cu    0.5112606104    0.4752995389    0.4916689042
Cu284     Cu    0.4752431366    0.5113303602    0.5082568071
C285       C    0.5430850611    0.5305682519    0.5433194658
C286       C    0.4434186859    0.4560616472    0.4566062455
C287       C    0.5305076292    0.5431437206    0.4566068431
C288       C    0.4559961178    0.4434861785    0.5433188682
C729       C    0.2409153980    0.2934110423    0.7037165997
C730       C    0.2756275981    0.2926417553    0.7179796054
C731       C    0.2846105571    0.2989612280    0.7559185419
C732       C    0.2588813160    0.3060499877    0.7795944727
C733       C    0.2241691158    0.3068192746    0.7653314670
C734       C    0.2151861569    0.3004998019    0.7273925306
H735       H    0.2342656751    0.2887329911    0.6756319325
H736       H    0.3103046886    0.2983920045    0.7664771687
H737       H    0.2655310388    0.3107280389    0.8076791400
H738       H    0.1894920254    0.3010690254    0.7168339038
C719       C    0.4026848511    0.3852967990    0.6307889279
C720       C    0.3792251472    0.3445202868    0.6174482746
C721       C    0.3809060391    0.3361526586    0.5798320725
C722       C    0.4060466349    0.3685615426    0.5555565236
C723       C    0.4295063388    0.4093380549    0.5688971770
C724       C    0.4278254470    0.4177056831    0.6065133791
H725       H    0.4014405545    0.3914910173    0.6586346879
H726       H    0.3635413029    0.3059697643    0.5699561778
H727       H    0.4072909315    0.3623673244    0.5277107636
H728       H    0.4451901832    0.4478885774    0.6163892737
C709       C    0.2755331549   -0.0170105767    0.7539934525
C710       C    0.2739310709   -0.0245346140    0.7158214556
C711       C    0.2471953994   -0.0644730929    0.7019229290
C712       C    0.2220618118   -0.0968875344    0.7261963994
C713       C    0.2236638958   -0.0893634971    0.7643683964
C714       C    0.2503995673   -0.0494250182    0.7782669229
H715       H    0.2953244961    0.0125542713    0.7642819722
H716       H    0.2460086964   -0.0700436225    0.6736677126
H717       H    0.2022704706   -0.1264523824    0.7159078797
H718       H    0.2515862703   -0.0438544886    0.8065221393
C699       C    0.3639449431    0.1595639932    0.6631637244
C700       C    0.3261647035    0.1220580120    0.6660239327
C701       C    0.2887925401    0.1224930441    0.6694957713
C702       C    0.2892006162    0.1604340573    0.6701074017
C703       C    0.3269808559    0.1979400385    0.6672471934
C704       C    0.3643530193    0.1975050064    0.6637753548
H705       H    0.3916100511    0.1592419564    0.6605936621
H706       H    0.2608265583    0.0947312639    0.6716129972
H707       H    0.2615355083    0.1607560941    0.6726774640
H708       H    0.3923190011    0.2252667866    0.6616581289
C689       C    0.6482400739    0.6124456668    0.5790748115
C690       C    0.6420675208    0.6073241270    0.6174459113
C691       C    0.6034815970    0.5770676629    0.6315431351
C692       C    0.5710682264    0.5519327386    0.6072692591
C693       C    0.5772407795    0.5570542785    0.5688981593
C694       C    0.6158267033    0.5873107425    0.5548009355
H695       H    0.6768036798    0.6348433091    0.5686392042
H696       H    0.5989114740    0.5732757598    0.6599457330
H697       H    0.5425046205    0.5295350964    0.6177048664
H698       H    0.6203968263    0.5911026456    0.5263983376
C679       C    0.6664999765    0.7245914461    0.7073935422
C680       C    0.6939734467    0.7108926561    0.7179668974
C681       C    0.7143667610    0.7229243035    0.7522222871
C682       C    0.7072866050    0.7486547409    0.7759043217
C683       C    0.6798131347    0.7623535310    0.7653309665
C684       C    0.6594198205    0.7503218836    0.7310755768
H685       H    0.6514036270    0.7156849020    0.6820356563
H686       H    0.7347031714    0.7127848885    0.7600497310
H687       H    0.7223829545    0.7575612851    0.8012622075
H688       H    0.6390834100    0.7604612985    0.7232481328
C669       C    1.0497336141    0.7147341872    0.7126442850
C670       C    1.0111085193    0.7126290998    0.7158227219
C671       C    1.0048963459    0.7356599614    0.7432750246
C672       C    1.0373092673    0.7607959105    0.7675488905
C673       C    1.0759343621    0.7629009979    0.7643704536
C674       C    1.0821465355    0.7398701363    0.7369181509
H675       H    1.0543322360    0.6976853676    0.6923224505
H676       H    0.9763059914    0.7341025121    0.7456285611
H677       H    1.0327106454    0.7778447302    0.7878707250
H678       H    1.1107368900    0.7414275857    0.7345646144
C659       C    0.8485882341    0.6673657948    0.6333302906
C660       C    0.8645297862    0.6603868406    0.6660238701
C661       C    0.8425284777    0.6529961099    0.6993273325
C662       C    0.8045856171    0.6525843333    0.6999372154
C663       C    0.7886440650    0.6595632874    0.6672436359
C664       C    0.8106453735    0.6669540182    0.6339401735
H665       H    0.8648749170    0.6728368552    0.6086770782
H666       H    0.8543276616    0.6478300789    0.7235280578
H667       H    0.7882989342    0.6471132728    0.7245904278
H668       H    0.7988461896    0.6721200491    0.6097394482
C649       C    0.5968060667    0.6914034205    0.9478784759
C650       C    0.6255103923    0.6774148970    0.9497575488
C651       C    0.6613706207    0.6960707649    0.9277069297
C652       C    0.6685265235    0.7287151563    0.9037772378
C653       C    0.6398221979    0.7427036798    0.9018981649
C654       C    0.6039619695    0.7240478119    0.9239487840
H655       H    0.5702601833    0.6775932326    0.9642016615
H656       H    0.6826185954    0.6857170999    0.9290971149
H657       H    0.6950724069    0.7425253442    0.8874540522
H658       H    0.5827139948    0.7344014769    0.9225585988
C639       C    0.2683086422    0.3427073893    0.9632526102
C640       C    0.3091103501    0.3610992678    0.9497612552
C641       C    0.3172658227    0.3723487941    0.9123480763
C642       C    0.2846195873    0.3652064419    0.8884262524
C643       C    0.2438178794    0.3468145635    0.9019176074
C644       C    0.2356624068    0.3355650372    0.9393307863
H645       H    0.2622714741    0.3343798179    0.9909480802
H646       H    0.3474673600    0.3859627531    0.9023606393
H647       H    0.2906567553    0.3735340133    0.8607307823
H648       H    0.2054608695    0.3219510781    0.9493182233
C629       C    0.4932347946    0.4555795686    0.9999685128
C630       C    0.4554937362    0.4555840034    0.9999666756
C631       C    0.4555027068    0.4933313215    0.9999646011
C632       C    0.4932527358    0.5310742050    0.9999643639
C633       C    0.5309937941    0.5310697702    0.9999662011
C634       C    0.5309848235    0.4933224521    0.9999682755
H635       H    0.4932281540    0.4276367487    0.9999700484
H636       H    0.4275669099    0.4933357987    0.9999632412
H637       H    0.4932593764    0.5590170249    0.9999628283
H638       H    0.5589206205    0.4933179749    0.9999696355
C619       C    0.7091446165    0.5994443958    0.0931974306
C620       C    0.7426451956    0.6398796667    0.0980312916
C621       C    0.7435011514    0.6731600306    0.0789361627
C622       C    0.7108565281    0.6660051238    0.0550071727
C623       C    0.6773559490    0.6255698530    0.0501733117
C624       C    0.6764999932    0.5922894890    0.0692684406
H625       H    0.7085109869    0.5748082823    0.1073327858
H626       H    0.7682981880    0.7030911276    0.0825135652
H627       H    0.7114901577    0.6906412374    0.0408718175
H628       H    0.6517029566    0.5623583920    0.0656910381
C609       C    0.7546550999    1.0377574580    0.2924279472
C610       C    0.7125669515    1.0111703634    0.2841067008
C611       C    0.6956132323    1.0169975859    0.2515122036
C612       C    0.7207476616    1.0494119028    0.2272389528
C613       C    0.7628358100    1.0759989973    0.2355601992
C614       C    0.7797895292    1.0701717749    0.2681546964
H615       H    0.7672052557    1.0334437998    0.3165563413
H616       H    0.6644591979    0.9973180974    0.2453518151
H617       H    0.7081975058    1.0537255610    0.2031105588
H618       H    0.8109435636    1.0898512634    0.2743150850
C599       C    0.6974177266    0.8262440650    0.3314352117
C600       C    0.6595091599    0.7887014768    0.3326843677
C601       C    0.6220110589    0.7891011025    0.3345435156
C602       C    0.6224215247    0.8270433164    0.3351535076
C603       C    0.6603300915    0.8645859046    0.3339043517
C604       C    0.6978281924    0.8641862789    0.3320452037
H605       H    0.7251760611    0.8259482382    0.3300589594
H606       H    0.5939500858    0.7613122248    0.3354681953
H607       H    0.5946631902    0.8273391432    0.3365297600
H608       H    0.7258891655    0.8919751566    0.3311205241
C589       C    0.5719516534    0.5688144528    0.3984719196
C590       C    0.5569950115    0.5772973382    0.4310289496
C591       C    0.5671753836    0.6181926361    0.4393120873
C592       C    0.5923123976    0.6506050486    0.4150381950
C593       C    0.6072690395    0.6421221632    0.3824811651
C594       C    0.5970886674    0.6012268653    0.3741980274
H595       H    0.5644155338    0.5385413102    0.3923402463
H596       H    0.5561048527    0.6244729319    0.4634109473
H597       H    0.5998485172    0.6808781912    0.4211698684
H598       H    0.6081591983    0.5949465695    0.3500991674
C579       C    0.7300824773    0.6847850544    0.2199103700
C580       C    0.7622993014    0.6798666245    0.2345986334
C581       C    0.7687856350    0.6820280886    0.2729690960
C582       C    0.7430551446    0.6891079827    0.2966512951
C583       C    0.7108383205    0.6940264125    0.2819630317
C584       C    0.7043519869    0.6918649484    0.2435925691
H585       H    0.7252809057    0.6831850095    0.1915062613
H586       H    0.7926326190    0.6783875527    0.2838425107
H587       H    0.7478567163    0.6907080275    0.3250554038
H588       H    0.6805050029    0.6955054843    0.2327191544
C569       C    0.3268650391    0.2670844384    0.1043217189
C570       C    0.3466765649    0.2439350526    0.0980262377
C571       C    0.3736399459    0.2534313994    0.0678044290
C572       C    0.3807918013    0.2860771319    0.0438781016
C573       C    0.3609802756    0.3092265176    0.0501735828
C574       C    0.3340168945    0.2997301709    0.0803953915
H575       H    0.3069051337    0.2600546752    0.1266937072
H576       H    0.3883052202    0.2362966068    0.0631435798
H577       H    0.4007517068    0.2931068950    0.0215061133
H578       H    0.3193516202    0.3168649634    0.0850562407
C559       C    0.3356612936    0.3836045490    0.4194349289
C560       C    0.3444412618    0.3792988172    0.3824782379
C561       C    0.3856329664    0.4001302986    0.3697959455
C562       C    0.4180447029    0.4252675119    0.3940703441
C563       C    0.4092647347    0.4295732437    0.4310270351
C564       C    0.3680730300    0.4087417622    0.4437093275
H565       H    0.3051687330    0.3681838419    0.4288231194
H566       H    0.3921331713    0.3969438705    0.3424403328
H567       H    0.4485372635    0.4406882189    0.3846821537
H568       H    0.3615728252    0.4119281904    0.4710649402
C549       C    0.2786795707    0.2343480574    0.2919046515
C550       C    0.2925351051    0.2757311290    0.2819595400
C551       C    0.3134696888    0.2913834981    0.2483317546
C552       C    0.3205487380    0.2656527954    0.2246490807
C553       C    0.3066932035    0.2242697237    0.2345941921
C554       C    0.2857586199    0.2086173547    0.2682219775
H555       H    0.2631825412    0.2227612388    0.3167979471
H556       H    0.3237261687    0.3220155960    0.2409693543
H557       H    0.3360457675    0.2772396140    0.1997557850
H558       H    0.2755021400    0.1779852568    0.2755843778
C539       C    0.1527885895    0.3512916316    0.3082994291
C540       C    0.1219790904    0.3262356741    0.3339013547
C541       C    0.1291120336    0.3015906561    0.3588929789
C542       C    0.1670544759    0.3020015955    0.3582826774
C543       C    0.1978639751    0.3270575529    0.3326807517
C544       C    0.1907310319    0.3517025710    0.3076891276
H545       H    0.1475083588    0.3695353462    0.2897991359
H546       H    0.1063071776    0.2830435455    0.3778442242
H547       H    0.1723347066    0.2837578808    0.3767829706
H548       H    0.2135358879    0.3702496816    0.2887378823
C529       C   -0.0563804152    0.2162218675    0.2409330246
C530       C   -0.0894343631    0.2237321447    0.2355593189
C531       C   -0.0900731136    0.2563759597    0.2544584485
C532       C   -0.0576579162    0.2815094974    0.2787312839
C533       C   -0.0246039683    0.2739992202    0.2841049896
C534       C   -0.0239652178    0.2413554052    0.2652058600
H535       H   -0.0559075739    0.1920569655    0.2269427598
H536       H   -0.1145395486    0.2619360733    0.2504814487
H537       H   -0.0581307575    0.3056743994    0.2927215487
H538       H    0.0005012172    0.2357952916    0.2691828598
C519       C    1.0887701224    0.7019228571   -0.0427389703
C520       C    1.0459039543    0.6778336683   -0.0492064189
C521       C    1.0281758542    0.6861549662   -0.0799490147
C522       C    1.0533139221    0.7185654528   -0.1042241620
C523       C    1.0961800902    0.7426546416   -0.0977567134
C524       C    1.1139081903    0.7343333438   -0.0670141175
H525       H    1.1018935212    0.6957629353   -0.0199814643
H526       H    0.9964459079    0.6683244976   -0.0847371701
H527       H    1.0401905233    0.7247253746   -0.1269816680
H528       H    1.1456381367    0.7521638124   -0.0622259622
C509       C    0.9165054440    0.6399555846    0.0368495824
C510       C    0.9423408618    0.6259251161    0.0513103106
C511       C    0.9424460472    0.6189732486    0.0894547275
C512       C    0.9167158149    0.6260518496    0.1131384160
C513       C    0.8908803971    0.6400823181    0.0986776878
C514       C    0.8907752117    0.6470341856    0.0605332709
H515       H    0.9164275794    0.6451017722    0.0086128063
H516       H    0.9615693350    0.6085877256    0.1001597143
H517       H    0.9167936795    0.6209056619    0.1413751921
H518       H    0.8716519239    0.6574197086    0.0498282841
C499       C    1.0778366925    0.3582682613    0.9631044394
C500       C    1.0441208438    0.3607523878    0.9486375008
C501       C    1.0361352926    0.3561650261    0.9104806240
C502       C    1.0618655901    0.3490935379    0.8867906858
C503       C    1.0955814387    0.3466094114    0.9012576244
C504       C    1.1035669899    0.3511967731    0.9394145012
H505       H    1.0837480745    0.3616641005    0.9913504391
H506       H    1.0111786886    0.3580036225    0.8997710399
H507       H    1.0559542080    0.3456976987    0.8585446861
H508       H    1.1285235940    0.3493581766    0.9501240853
C489       C    1.0306998786    0.4928539589    1.0017665753
C490       C    0.9928232339    0.4553863229    0.9993592426
C491       C    0.9553613351    0.4558629489    0.9975656395
C492       C    0.9557760809    0.4938072108    0.9981793691
C493       C    0.9936527256    0.5312748468    1.0005867019
C494       C    1.0311146244    0.5307982208    1.0023803050
H495       H    1.0584314141    0.4925011319    1.0030943075
H496       H    0.9273239917    0.4281295530    0.9957836836
H497       H    0.9280445453    0.4941600378    0.9968516370
H498       H    1.0591519678    0.5585316167    1.0041622609
C479       C    0.9140473792    0.2688194992    1.0352721003
C480       C    0.9405803135    0.3088211502    1.0491462909
C481       C    0.9419787329    0.3164078434    1.0872931446
C482       C    0.9168442178    0.2839928855    1.1115658077
C483       C    0.8903112834    0.2439912344    1.0976916171
C484       C    0.8889128641    0.2364045413    1.0595447634
H485       H    0.9130121856    0.2632033757    1.0070335203
H486       H    0.9616183609    0.3460171634    1.0975639785
H487       H    0.9178794113    0.2896090090    1.1398043877
H488       H    0.8692732361    0.2067952212    1.0492739295
C469       C    0.2747216460    0.8803480330   -0.0894533971
C470       C    0.2439112371    0.8903853146   -0.0977593435
C471       C    0.2455126374    0.9255599702   -0.0817910169
C472       C    0.2779244467    0.9506973441   -0.0575167437
C473       C    0.3087348556    0.9406600625   -0.0492107972
C474       C    0.3071334553    0.9054854070   -0.0651791239
H475       H    0.2735361938    0.8543096517   -0.1012741064
H476       H    0.2227069329    0.9329906435   -0.0879385436
H477       H    0.2791098989    0.9767357255   -0.0456960343
H478       H    0.3299391598    0.8980547336   -0.0590315972
C459       C    0.3655511453    1.0739613431    0.1122536237
C460       C    0.3464814287    1.0956886475    0.0986705042
C461       C    0.3344922871    1.0916856613    0.0614055315
C462       C    0.3415728621    1.0659553706    0.0377236783
C463       C    0.3606425786    1.0442280662    0.0513067978
C464       C    0.3726317202    1.0482310524    0.0885717705
H465       H    0.3744262241    1.0769245926    0.1398393827
H466       H    0.3203765713    1.1077680081    0.0513501754
H467       H    0.3326977832    1.0629921210    0.0101379193
H468       H    0.3867474361    1.0321487056    0.0986271266
C449       C    0.6666232747    0.9529817336    0.9392934372
C450       C    0.6258588568    0.9424023578    0.9486202110
C451       C    0.5921753043    0.9060932026    0.9342647220
C452       C    0.5992561697    0.8803634231    0.9105824592
C453       C    0.6400205877    0.8909427990    0.9012556854
C454       C    0.6737041402    0.9272519542    0.9156111744
H455       H    0.6915578525    0.9798599395    0.9499202278
H456       H    0.5620005610    0.8982612371    0.9411679125
H457       H    0.5743215919    0.8534852173    0.8999556687
H458       H    0.7038788835    0.9350839197    0.9087079839
C439       C    0.5229441512    1.0144444361    1.0276361509
C440       C    0.5311922757    0.9937267668    0.9993492375
C441       C    0.5014980404    0.9725981716    0.9716775773
C442       C    0.4635556806    0.9721872456    0.9722928307
C443       C    0.4553075562    0.9929049149    1.0005797441
C444       C    0.4850017915    1.0140335102    1.0282514042
H445       H    0.5449255982    1.0300850845    1.0481203668
H446       H    0.5076023330    0.9572623577    0.9507388288
H447       H    0.4415742337    0.9565465972    0.9518086147
H448       H    0.4788974988    1.0293693240    1.0491901527
C429       C    0.7162817099    1.0763810742    1.0350470240
C430       C    0.6777642428    1.0459741456    1.0491408273
C431       C    0.6716575225    1.0407059297    1.0875093014
C432       C    0.7040682693    1.0658446423    1.1117839723
C433       C    0.7425857363    1.0962515709    1.0976901690
C434       C    0.7486924567    1.1015197868    1.0593216949
H435       H    0.7208022691    1.0802809223    1.0066443873
H436       H    0.6431468370    1.0181986625    1.0979426988
H437       H    0.6995477101    1.0619447941    1.1401866090
H438       H    0.7772031422    1.1240270540    1.0488882975
C419       C    1.0597512915    0.4072417483    0.4065486517
C420       C    1.0273076085    0.3775626862    0.3846296517
C421       C    0.9877836434    0.3736118807    0.3863954252
C422       C    0.9807033613    0.3993401371    0.4100801988
C423       C    1.0131470443    0.4290191992    0.4319991989
C424       C    1.0526710094    0.4329700047    0.4302334253
H425       H    1.0890092917    0.4101663706    0.4052415206
H426       H    0.9637676937    0.3516434194    0.3701711152
H427       H    0.9514453612    0.3964155148    0.4113873299
H428       H    1.0766869591    0.4549384660    0.4464577354
C409       C    1.0063206814    0.5968314714    0.5778294096
C410       C    0.9733594695    0.5576078813    0.5679268592
C411       C    0.9333184757    0.5441124040    0.5817097159
C412       C    0.9262386937    0.5698405166    0.6053951230
C413       C    0.9591999055    0.6090641067    0.6152976734
C414       C    0.9992408994    0.6225595841    0.6015148167
H415       H    1.0359614171    0.6068216300    0.5676265157
H416       H    0.9089194366    0.5150788149    0.5743803195
H417       H    0.8965979579    0.5598503580    0.6155980169
H418       H    1.0236399384    0.6515931731    0.6088442131
C399       C    0.5761200599    0.9508341602    0.4445883655
C400       C    0.5575448552    0.9734190770    0.4319984171
C401       C    0.5646985393    0.9889240164    0.3957242501
C402       C    0.5904274283    0.9818440391    0.3720400314
C403       C    0.6090026330    0.9592591223    0.3846299798
C404       C    0.6018489489    0.9437541828    0.4209041469
H405       H    0.5708244755    0.9393564777    0.4714406710
H406       H    0.5509494652    1.0056417823    0.3864040671
H407       H    0.5957230127    0.9933217215    0.3451877259
H408       H    0.6155980230    0.9270364170    0.4302243299
C389       C    0.4107058754    1.0240515172    0.6298537828
C390       C    0.3774985126    1.0273749385    0.6152941664
C391       C    0.3700194978    1.0236167527    0.5770510761
C392       C    0.3957478457    1.0165351455    0.5533676022
C393       C    0.4289552085    1.0132117241    0.5679272187
C394       C    0.4364342233    1.0169699100    0.6061703090
H395       H    0.4162422889    1.0268335509    0.6581636030
H396       H    0.3454392892    1.0260766184    0.5662728894
H397       H    0.3902114322    1.0137531118    0.5250577821
H398       H    0.4610144319    1.0145100443    0.6169484956
C379       C    0.7116349205   -0.0154320600    0.7524578921
C380       C    0.6943192894   -0.0241135970    0.7168336382
C381       C    0.6698491478   -0.0654398467    0.7051380989
C382       C    0.6626946373   -0.0980845595    0.7290668135
C383       C    0.6800102685   -0.0894030226    0.7646910674
C384       C    0.7044804101   -0.0480767728    0.7763866067
H385       H    0.7297491812    0.0151600989    0.7611156290
H386       H    0.6570314047   -0.0718671974    0.6787687827
H387       H    0.6445803767   -0.1286767184    0.7204090766
H388       H    0.7172981532   -0.0416494222    0.8027559229
C369       C    0.6369632237    0.0060039568    0.5832212795
C370       C    0.6424808329    0.0277290567    0.6164221197
C371       C    0.6153541220    0.0422962472    0.6256923634
C372       C    0.5827098018    0.0351383378    0.6017617669
C373       C    0.5771921926    0.0134132379    0.5685609268
C374       C    0.6043189036   -0.0011539526    0.5592906831
H375       H    0.6570440357   -0.0047795479    0.5763588913
H376       H    0.6194373782    0.0583775499    0.6502678007
H377       H    0.5626289898    0.0459218424    0.6086241551
H378       H    0.6002356474   -0.0172352554    0.5347152458
C359       C    1.0321701765    0.2705924107    0.7118902977
C360       C    1.0106399369    0.2922876430    0.7168379996
C361       C    1.0217525275    0.3211518041    0.7457226735
C362       C    1.0543953579    0.3283207329    0.7696596455
C363       C    1.0759255976    0.3066255006    0.7647119435
C364       C    1.0648130069    0.2777613395    0.7358272696
H365       H    1.0239439730    0.2492254343    0.6905081365
H366       H    1.0058162723    0.3372114514    0.7493858591
H367       H    1.0626215614    0.3496877093    0.7910418066
H368       H    1.0807492621    0.2617016923    0.7321640841
C349       C    0.8643156562    0.1600097776    0.6666288010
C350       C    0.8643123969    0.1977514236    0.6666286441
C351       C    0.8265656661    0.1977436285    0.6666279737
C352       C    0.7888221946    0.1599941873    0.6666274602
C353       C    0.7888254539    0.1222525412    0.6666276171
C354       C    0.8265721847    0.1222603363    0.6666282875
H355       H    0.8922580413    0.1600155480    0.6666292973
H356       H    0.8265620590    0.2256798606    0.6666278575
H357       H    0.7608798094    0.1599884169    0.6666269640
H358       H    0.8265757918    0.0943241043    0.6666284037
C339       C    1.0024471944    0.4153875630    0.5958889975
C340       C    0.9731496829    0.4093837745    0.5685591868
C341       C    0.9366901563    0.3707363764    0.5651625488
C342       C    0.9295281413    0.3380927667    0.5890957214
C343       C    0.9588256528    0.3440965552    0.6164255321
C344       C    0.9952851793    0.3827439533    0.6198221701
H345       H    1.0294367140    0.4439966760    0.5984033919
H346       H    0.9150030886    0.3662911704    0.5449330126
H347       H    0.9025386216    0.3094836538    0.5865813270
H348       H    1.0169722470    0.3871891593    0.6400517064
C329       C    0.3078519156    1.0124289689    0.2474202519
C330       C    0.2921868199    1.0107400174    0.2830901211
C331       C    0.2836761652    1.0416959921    0.2948315781
C332       C    0.2908306062    1.0743409183    0.2709031659
C333       C    0.3064957019    1.0760298697    0.2352332967
C334       C    0.3150063566    1.0450738951    0.2234918396
H335       H    0.3141520106    0.9895135071    0.2387285239
H336       H    0.2720806477    1.0404468159    0.3212346601
H337       H    0.2845305111    1.0972563800    0.2795948938
H338       H    0.3266018741    1.0463230713    0.1970887576
C319       C    0.3453809499    0.9739889798    0.4193578052
C320       C    0.3440233182    0.9588963326    0.3835008775
C321       C    0.3753101147    0.9509625508    0.3715747949
C322       C    0.4079545428    0.9581214163    0.3955056401
C323       C    0.4093121745    0.9732140635    0.4313625677
C324       C    0.3780253781    0.9811478453    0.4432886503
H325       H    0.3222205941    0.9798620391    0.4281862040
H326       H    0.3743061907    0.9397907759    0.3450332471
H327       H    0.4311148986    0.9522483570    0.3866772413
H328       H    0.3790293021    0.9923196202    0.4698301982
C309       C    0.1599308123    0.7888887298    0.3332991157
C310       C    0.1221856343    0.7888849267    0.3332997429
C311       C    0.1221863671    0.8266281261    0.3332998813
C312       C    0.1599322779    0.8643751286    0.3332993925
C313       C    0.1976774560    0.8643789317    0.3332987653
C314       C    0.1976767232    0.8266357323    0.3332986270
H315       H    0.1599302699    0.7609489587    0.3332990133
H316       H    0.0942475204    0.8266265055    0.3333003456
H317       H    0.1599328204    0.8923148997    0.3332994950
H318       H    0.2256155698    0.8266373529    0.3332981627
C299       C   -0.0482509204    0.7080213343    0.2251055628
C300       C   -0.0894605988    0.6800645190    0.2352363328
C301       C   -0.0980255306    0.6592621855    0.2692957621
C302       C   -0.0653807840    0.6664166675    0.2932244214
C303       C   -0.0241711057    0.6943734828    0.2830936514
C304       C   -0.0156061739    0.7151758163    0.2490342221
H305       H   -0.0419106462    0.7234204642    0.1998927385
H306       H   -0.1285290591    0.6385679918    0.2767956000
H307       H   -0.0717210582    0.6510175376    0.3184372458
H308       H    0.0148973547    0.7358700100    0.2415343843
C289       C    0.0296113017    0.5792800978    0.3958981171
C290       C    0.0133537656    0.5772517807    0.4313649341
C291       C    0.0042548604    0.6078675538    0.4429005667
C292       C    0.0114134914    0.6405116441    0.4189693823
C293       C    0.0276710275    0.6425399612    0.3835025653
C294       C    0.0367699327    0.6119241881    0.3719669327
H295       H    0.0363468549    0.5566164736    0.3873587527
H296       H   -0.0077791980    0.6063671695    0.4691533437
H297       H    0.0046779382    0.6631752683    0.4275087467
H298       H    0.0488039911    0.6134245724    0.3457141557
loop_
_geom_bond_atom_site_label_1
_geom_bond_atom_site_label_2
_geom_bond_distance
_geom_bond_site_symmetry_2
_ccdc_geom_bond_type
C471       H476 1.140       .   S
C511       H516 1.140       .   S
C512       H517 1.140       .   S
C509       H515 1.140       .   S
C514       H518 1.140       .   S
C694       H698 1.140       .   S
C689       H695 1.140       .   S
C692       H697 1.140       .   S
C691       H696 1.140       .   S
C562       H567 1.140       .   S
C562       C563 1.540       .   A
C561       C562 1.540       .   A
C563       C286 1.623       .   S
C563       C564 1.540       .   A
C560       C114 1.623       .   S
C560       C561 1.540       .   A
C559       C560 1.540       .   A
C561       H566 1.140       .   S
C559       C564 1.540       .   A
C564       H568 1.140       .   S
C242       C243 1.540       .   A
C238       C243 1.540       .   A
C243       H246 1.140       .   S
C241       C242 1.540       .   A
C242       C720 1.623       .   S
C240       C241 1.540       .   A
C241       H245 1.140       .   S
C240       C703 1.752       .   S
C239       C240 1.540       .   A
O53        Cu59 1.951       .   S
O52        Cu59 1.951       .   S
O51        Cu59 1.951       .   S
Cu59       Cu60 2.630       .   S
O54        Cu59 1.951       .   S
C489       C494 1.540       .   A
C489       H495 1.140       .   S
C489       C490 1.540       .   A
C344       H348 1.140       .   S
C461       H466 1.140       .   S
C462       H467 1.140       .   S
C459       H465 1.140       .   S
C373       C374 1.540       .   A
C372       C373 1.540       .   A
C373        C47 1.615   1_545   S
C464       H468 1.140       .   S
C342       H347 1.140       .   S
C341       H346 1.140       .   S
C339       H345 1.140       .   S
C372       H377 1.140       .   S
C371       C372 1.540       .   A
C301       H306 1.140       .   S
C301       C302 1.540       .   A
C300       C301 1.540       .   A
O58        Cu60 1.951       .   S
O58         C61 1.250       .   A
O53         C63 1.250       .   A
O52         C62 1.250       .   A
O51         C61 1.250       .   A
C369       C370 1.540       .   A
C370       C371 1.540       .   A
C370        C30 1.615       .   S
O57        Cu60 1.951       .   S
O57         C62 1.250       .   A
O56        Cu60 1.951       .   S
O56         C63 1.251       .   A
O55        Cu60 1.951       .   S
O55         C64 1.250       .   A
O54         C64 1.250       .   A
O278      Cu283 1.951       .   S
Cu283     Cu284 2.630       .   S
O276      Cu283 1.951       .   S
O277      Cu283 1.951       .   S
O275      Cu283 1.951       .   S
O282      Cu284 1.951       .   S
O281      Cu284 1.951       .   S
O279      Cu284 1.951       .   S
O280      Cu284 1.951       .   S
C664       H668 1.140       .   S
C659       C664 1.540       .   A
C663       C664 1.540       .   A
O166      Cu173 1.951       .   S
O166       C176 1.250       .   A
O167       C177 1.250       .   A
O167      Cu173 1.951       .   S
C663       C208 1.751       .   S
C662       C663 1.540       .   A
O165       C175 1.250       .   A
O165      Cu173 1.951       .   S
C200       H204 1.140       .   S
O169      Cu174 1.951       .   S
O169       C178 1.250       .   A
C669       C670 1.540       .   A
C669       H675 1.140       .   S
C669       C674 1.540       .   A
C198       H203 1.140       .   S
C479       H485 1.140       .   S
C232       C233 1.540       .   A
C231       C232 1.540       .   A
C232       H236 1.140       .   S
C481       H486 1.140       .   S
C233       C700 1.752       .   S
C233       C234 1.540       .   A
C482       H487 1.140       .   S
C230       C231 1.540       .   A
C229       C230 1.540       .   A
C230       H235 1.140       .   S
C231       C710 1.623       .   S
C15         H18 1.140       .   S
O44         C47 1.250       .   A
O37         C47 1.250       .   A
O263      Cu269 1.951       .   S
O263       C273 1.250       .   A
C644       H648 1.140       .   S
C359       C364 1.540       .   A
C359       H365 1.140       .   S
C359       C360 1.540       .   A
C641       H646 1.140       .   S
C642       H647 1.140       .   S
C639       H645 1.140       .   S
O38         C48 1.250       .   A
O43         C48 1.250       .   A
C48        C323 1.615       .   S
O39         C49 1.250       .   A
C49        C400 1.608       .   S
O42         C49 1.251       .   A
C11         H16 1.140       .   S
C13         H17 1.140       .   S
C593       C135 1.623       .   S
C592       C593 1.540       .   A
C593       C594 1.540       .   A
C592       H597 1.140       .   S
C591       C592 1.540       .   A
C591       H596 1.140       .   S
C590       C591 1.540       .   A
C287       C590 1.623       .   S
C589       C590 1.540       .   A
C589       C594 1.540       .   A
C594       H598 1.140       .   S
C599       C600 1.540       .   A
C599       H605 1.140       .   S
C599       C604 1.540       .   A
O275       C285 1.250       .   A
C115       H118 1.140       .   S
C289       H295 1.140       .   S
C292       H297 1.140       .   S
C291       H296 1.140       .   S
C294       H298 1.140       .   S
C111       H116 1.140       .   S
C113       H117 1.140       .   S
C699       C700 1.540       .   A
C699       H705 1.140       .   S
C699       C704 1.540       .   A
C349       C354 1.540       .   A
C349       C350 1.540       .   A
C349       H355 1.140       .   S
C690       C691 1.540       .   A
C689       C690 1.540       .   A
C690       C210 1.623       .   S
C691       C692 1.540       .   A
C692       C693 1.540       .   A
C693       C694 1.540       .   A
C693       C285 1.623       .   S
C689       C694 1.540       .   A
C343       C344 1.540       .   A
C339       C344 1.540       .   A
C293       C294 1.540       .   A
C293         C3 1.615       .   S
C292       C293 1.540       .   A
C311       C312 1.540       .   A
C312       C313 1.540       .   A
C312       H317 1.140       .   S
C492       H497 1.140       .   S
C491       H496 1.140       .   S
C494       H498 1.140       .   S
C313       C314 1.540       .   A
C314       H318 1.140       .   S
C309       C314 1.540       .   A
C519       C524 1.540       .   A
C524       H528 1.140       .   S
C523       C524 1.540       .   A
C522       H527 1.140       .   S
C522       C523 1.540       .   A
C521       C522 1.540       .   A
C271       C523 1.623   1_456   S
C519       C520 1.540       .   A
C520        C96 1.623       .   S
C520       C521 1.540       .   A
O278       C288 1.250       .   A
O279       C288 1.250       .   A
C288       C723 1.623       .   S
O280       C287 1.251       .   A
O277       C287 1.250       .   A
O281       C286 1.250       .   A
O276       C286 1.250       .   A
O282       C285 1.250       .   A
C211       H214 1.140       .   S
C449       C450 1.540       .   A
C449       H455 1.140       .   S
C449       C454 1.540       .   A
C180       H185 1.140       .   S
C439       C444 1.540       .   A
C444       H448 1.140       .   S
C443       C444 1.540       .   A
C114       C115 1.540       .   A
C110       C115 1.540       .   A
C113       C114 1.540       .   A
C112       C113 1.540       .   A
C111       C112 1.540       .   A
C112       C543 1.751       .   S
C110       C111 1.540       .   A
C110       C550 1.608       .   S
C421       H426 1.140       .   S
C422       H427 1.140       .   S
C419       H425 1.140       .   S
C384       H388 1.140       .   S
C382       H387 1.140       .   S
C381       H386 1.140       .   S
C379       H385 1.140       .   S
C424       H428 1.140       .   S
C569       C574 1.540       .   A
C569       C570 1.540       .   A
C569       H575 1.140       .   S
C544       H548 1.140       .   S
C539       H545 1.140       .   S
C542       H547 1.140       .   S
C541       H546 1.140       .   S
O265      Cu270 1.951       .   S
O265       C274 1.250       .   A
O264      Cu269 1.951       .   S
O264       C274 1.250       .   A
O267      Cu270 1.951       .   S
O267       C272 1.250       .   A
O266      Cu270 1.951       .   S
O266       C273 1.251       .   A
O261      Cu269 1.951       .   S
O261       C271 1.250       .   A
C234       H237 1.140       .   S
C229       C234 1.540       .   A
O262      Cu269 1.951       .   S
O262       C272 1.250       .   A
C238       C239 1.540       .   A
C238       C730 1.610       .   S
C239       H244 1.140       .   S
O268      Cu270 1.951       .   S
O268       C271 1.250       .   A
O126      Cu128 1.951       .   S
O126       C129 1.250       .   A
O124      Cu128 1.951       .   S
O124       C131 1.251       .   A
O125      Cu128 1.951       .   S
O125       C130 1.250       .   A
O122      Cu127 1.951       .   S
O122       C132 1.250       .   A
O123      Cu128 1.951       .   S
O123       C132 1.250       .   A
O120      Cu127 1.951       .   S
O120       C130 1.250       .   A
O121       C131 1.250       .   A
O121      Cu127 1.951       .   S
C290       C291 1.540       .   A
C291       C292 1.540       .   A
C629       C634 1.540       .   A
C629       H635 1.140       .   S
C629       C630 1.540       .   A
C632       H637 1.140       .   S
C631       H636 1.140       .   S
C620       C621 1.540       .   A
C621       H626 1.140       .   S
C621       C622 1.540       .   A
O171      Cu174 1.951       .   S
O170      Cu174 1.951       .   S
Cu173     Cu174 2.630       .   S
O172      Cu174 1.951       .   S
C622       C623 1.540       .   A
C623       C188 1.616   1_554   S
C623       C624 1.540       .   A
C622       H627 1.140       .   S
O168      Cu173 1.951       .   S
C493       C494 1.540       .   A
C492       C493 1.540       .   A
C493        C94 1.750   1_556   S
C331       H336 1.140       .   S
C661       H666 1.140       .   S
C329       H335 1.140       .   S
C334       H338 1.140       .   S
C450        C65 1.608       .   S
C450       C451 1.540       .   A
C619       C624 1.540       .   A
C624       H628 1.140       .   S
C300       C161 1.616   1_455   S
C299       C300 1.540       .   A
C584       H588 1.140       .   S
C724       H728 1.140       .   S
O247      Cu255 1.951       .   S
O250      Cu255 1.951       .   S
Cu255     Cu256 2.630       .   S
O249      Cu255 1.951       .   S
O248      Cu255 1.951       .   S
O254      Cu256 1.951       .   S
O251      Cu256 1.951       .   S
O252      Cu256 1.951       .   S
O253      Cu256 1.951       .   S
C719       H725 1.140       .   S
C722       H727 1.140       .   S
C721       H726 1.140       .   S
C714       H718 1.140       .   S
C709       C714 1.540       .   A
C713       C714 1.540       .   A
C710       C711 1.540       .   A
C711       H716 1.140       .   S
C711       C712 1.540       .   A
C709       C710 1.540       .   A
C272       C713 1.623   1_565   S
C712       C713 1.540       .   A
C712       H717 1.140       .   S
C719       C724 1.540       .   A
C719       C720 1.540       .   A
C511       C512 1.540       .   A
C510       C511 1.540       .   A
C147       H150 1.140       .   S
C491       C492 1.540       .   A
C490       C491 1.540       .   A
C459       C464 1.540       .   A
C459       C460 1.540       .   A
C659       C660 1.540       .   A
C659       H665 1.140       .   S
C309       C310 1.540       .   A
C309       H315 1.140       .   S
C654       H658 1.140       .   S
C649       C654 1.540       .   A
C653       C654 1.540       .   A
C304       H308 1.140       .   S
C299       C304 1.540       .   A
C303       C304 1.540       .   A
C650       C651 1.540       .   A
C649       C650 1.540       .   A
C650       C192 1.616       .   S
C651       C652 1.540       .   A
C651       H656 1.140       .   S
C652       H657 1.140       .   S
C652       C653 1.540       .   A
C653       C226 1.616       .   S
C513       C514 1.540       .   A
C509       C514 1.540       .   A
C609       H615 1.140       .   S
C612       H617 1.140       .   S
C611       H616 1.140       .   S
C589       H595 1.140       .   S
C614       H618 1.140       .   S
O221      Cu224 1.951       .   S
O219      Cu224 1.951       .   S
O222      Cu224 1.951       .   S
Cu223     Cu224 2.630       .   S
O220      Cu224 1.951       .   S
O218      Cu223 1.951       .   S
O215      Cu223 1.951       .   S
O216      Cu223 1.951       .   S
O217      Cu223 1.951       .   S
C31         H35 1.140       .   S
C30         C31 1.540       .   A
C31         C32 1.540       .   A
C29         C30 1.540       .   A
C28         C33 1.540       .   A
C33         H36 1.140       .   S
C32         C33 1.540       .   A
C353        C32 1.752       .   S
C400       C401 1.540       .   A
C401       C402 1.540       .   A
C401       H406 1.140       .   S
C399       C400 1.540       .   A
C142       C403 1.608       .   S
C402       C403 1.540       .   A
C403       C404 1.540       .   A
C402       H407 1.140       .   S
C399       C404 1.540       .   A
C404       H408 1.140       .   S
C409       C414 1.540       .   A
C409       H415 1.140       .   S
C409       C410 1.540       .   A
C390       C391 1.540       .   A
C391       H396 1.140       .   S
C391       C392 1.540       .   A
C20         H25 1.140       .   S
C392       C393 1.540       .   A
C393       C394 1.540       .   A
C50        C393 1.609       .   S
C392       H397 1.140       .   S
C394       H398 1.140       .   S
C389       C394 1.540       .   A
C399       H405 1.140       .   S
C619       C620 1.540       .   A
C620       C162 1.616       .   S
O254       C257 1.250       .   A
C649       H655 1.140       .   S
O250       C260 1.250       .   A
O251       C260 1.250       .   A
O252       C259 1.251       .   A
O253       C258 1.250       .   A
C499       H505 1.140       .   S
C502       H507 1.140       .   S
C501       H506 1.140       .   S
C504       H508 1.140       .   S
C470       C274 1.623   1_554   S
C673       C273 1.623   1_655   S
C474       H478 1.140       .   S
C469       C474 1.540       .   A
C473       C474 1.540       .   A
C579       C580 1.540       .   A
C579       H585 1.140       .   S
C579       C584 1.540       .   A
C499       C500 1.540       .   A
C499       C504 1.540       .   A
C472       H477 1.140       .   S
C471       C472 1.540       .   A
C472       C473 1.540       .   A
C473        C76 1.623       .   S
O221       C226 1.250       .   A
O220       C227 1.251       .   A
O222       C225 1.250       .   A
C571       H576 1.140       .   S
C570       C571 1.540       .   A
C571       C572 1.540       .   A
C570       C130 1.616       .   S
C573       C574 1.540       .   A
C181       C573 1.616   1_556   S
C572       C573 1.540       .   A
C572       H577 1.140       .   S
C512       C513 1.540       .   A
C513       C163 1.608       .   S
C371       H376 1.140       .   S
C369       H375 1.140       .   S
C374       H378 1.140       .   S
C469       H475 1.140       .   S
C574       H578 1.140       .   S
O40        Cu45 1.951       .   S
O40         C50 1.250       .   A
O41        Cu46 1.951       .   S
O41         C50 1.250       .   A
O42        Cu46 1.951       .   S
O43        Cu46 1.951       .   S
O44        Cu46 1.951       .   S
C350        C21 1.752       .   S
C350       C351 1.540       .   A
C610       C611 1.540       .   A
C609       C610 1.540       .   A
C144       C610 1.623       .   S
C611       C612 1.540       .   A
C612       C613 1.540       .   A
C613       C614 1.540       .   A
C176       C613 1.623   1_545   S
C609       C614 1.540       .   A
C619       H625 1.140       .   S
C209       H213 1.140       .   S
C207       H212 1.140       .   S
O171       C176 1.250       .   A
O170       C177 1.251       .   A
O172       C175 1.250       .   A
C78         C79 1.540       .   A
C74         C79 1.540       .   A
C79         H82 1.140       .   S
C443        C78 1.751   1_556   S
C77         C78 1.540       .   A
C709       H715 1.140       .   S
C65         C70 1.540       .   A
C70         H73 1.140       .   S
C69         C70 1.540       .   A
C24         H27 1.140       .   S
C22         H26 1.140       .   S
C75         H80 1.140       .   S
C74         C75 1.540       .   A
C75         C76 1.540       .   A
C463        C74 1.608       .   S
C77         H81 1.140       .   S
C76         C77 1.540       .   A
Cu269     Cu270 2.630       .   S
C102       H107 1.140       .   S
C97        H100 1.140       .   S
C106       H109 1.140       .   S
C104       H108 1.140       .   S
C354       H358 1.140       .   S
C353       C354 1.540       .   A
C351       H356 1.140       .   S
C351       C352 1.540       .   A
O249       C259 1.250       .   A
C352       C353 1.540       .   A
C352       H357 1.140       .   S
C723       C724 1.540       .   A
O248       C258 1.250       .   A
C720       C721 1.540       .   A
C721       C722 1.540       .   A
C722       C723 1.540       .   A
C490        C87 1.750       .   S
C682       C683 1.540       .   A
C228       C683 1.608       .   S
C683       C684 1.540       .   A
C681       C682 1.540       .   A
C682       H687 1.140       .   S
C680       C681 1.540       .   A
C681       H686 1.140       .   S
C206       C680 1.608       .   S
C679       C680 1.540       .   A
C684       H688 1.140       .   S
C679       C684 1.540       .   A
C530       C531 1.540       .   A
C531       C532 1.540       .   A
C531       H536 1.140       .   S
C177       C530 1.623   1_655   S
C529       C530 1.540       .   A
C532       C533 1.540       .   A
C533       C534 1.540       .   A
C103       C533 1.623       .   S
C532       H537 1.140       .   S
C534       H538 1.140       .   S
C529       C534 1.540       .   A
C539       C544 1.540       .   A
C539       C540 1.540       .   A
C679       H685 1.140       .   S
C439       C440 1.540       .   A
C439       H445 1.140       .   S
C129       C333 1.616   1_545   S
O119       C129 1.250       .   A
C729       C734 1.540       .   A
C729       H735 1.140       .   S
C729       C730 1.540       .   A
C430       C431 1.540       .   A
C429       C430 1.540       .   A
C69        C430 1.623       .   S
C660       C661 1.540       .   A
C661       C662 1.540       .   A
C431       C432 1.540       .   A
C432       C433 1.540       .   A
C432       H437 1.140       .   S
C178       C433 1.623   1_544   S
C433       C434 1.540       .   A
C434       H438 1.140       .   S
C429       C434 1.540       .   A
C660       C199 1.751       .   S
C302       H307 1.140       .   S
C302       C303 1.540       .   A
C662       H667 1.140       .   S
C303         C1 1.616       .   S
C429       H435 1.140       .   S
C519       H525 1.140       .   S
C431       H436 1.140       .   S
O168       C178 1.250       .   A
C93         H98 1.140       .   S
C92         C93 1.540       .   A
C93         C94 1.540       .   A
C510        C92 1.608       .   S
C92         C97 1.540       .   A
C202       H205 1.140       .   S
C96         C97 1.540       .   A
C95         C96 1.540       .   A
C95         H99 1.140       .   S
C94         C95 1.540       .   A
C529       H535 1.140       .   S
C543       C544 1.540       .   A
C229       C390 1.609   1_545   S
O218       C228 1.250       .   A
O219       C228 1.250       .   A
O216       C226 1.250       .   A
O217       C227 1.250       .   A
O215       C225 1.250       .   A
C383       C225 1.616   1_545   S
C453       C227 1.608       .   S
C549       H555 1.140       .   S
C549       C554 1.540       .   A
C549       C550 1.540       .   A
O157      Cu160 1.951       .   S
O156      Cu160 1.951       .   S
O155      Cu160 1.951       .   S
Cu159     Cu160 2.630       .   S
O158      Cu160 1.951       .   S
C441       H446 1.140       .   S
C442       H447 1.140       .   S
C324       H328 1.140       .   S
C319       H325 1.140       .   S
C322       H327 1.140       .   S
C321       H326 1.140       .   S
C145       H149 1.140       .   S
C143       H148 1.140       .   S
C138       H141 1.140       .   S
C136       H140 1.140       .   S
C482       C483 1.540       .   A
C175       C483 1.623   1_554   S
C483       C484 1.540       .   A
C481       C482 1.540       .   A
C484       H488 1.140       .   S
C479       C484 1.540       .   A
C319       C320 1.540       .   A
C319       C324 1.540       .   A
C310       C311 1.540       .   A
C311       H316 1.140       .   S
C310         C5 1.752       .   S
C14        C313 1.752       .   S
C643       C644 1.540       .   A
C639       C644 1.540       .   A
C642       C643 1.540       .   A
C643       C257 1.616       .   S
C641       C642 1.540       .   A
C640       C641 1.540       .   A
C640       C179 1.616       .   S
C639       C640 1.540       .   A
C22         C23 1.540       .   A
C21         C22 1.540       .   A
C360        C23 1.615       .   S
C23         C24 1.540       .   A
C19         C20 1.540       .   A
C20         C21 1.540       .   A
C19         C24 1.540       .   A
C28         C29 1.540       .   A
C380        C28 1.616       .   S
C29         H34 1.140       .   S
C582       H587 1.140       .   S
C581       H586 1.140       .   S
C134       H139 1.140       .   S
C332       H337 1.140       .   S
C580       C164 1.608       .   S
O155       C164 1.250       .   A
O154       C164 1.250       .   A
O157       C162 1.250       .   A
O152       C162 1.250       .   A
O156       C163 1.251       .   A
O153       C163 1.250       .   A
O151       C161 1.250       .   A
O158       C161 1.250       .   A
O39        Cu45 1.951       .   S
O38        Cu45 1.951       .   S
Cu45       Cu46 2.630       .   S
O37        Cu45 1.951       .   S
C369       C374 1.540       .   A
C364       H368 1.140       .   S
C363       C364 1.540       .   A
C360       C361 1.540       .   A
C361       C362 1.540       .   A
C361       H366 1.140       .   S
C362       H367 1.140       .   S
C362       C363 1.540       .   A
C363       C258 1.615   1_655   S
C179       C184 1.540       .   A
C184       H187 1.140       .   S
C183       C184 1.540       .   A
C179       C180 1.540       .   A
C180       C181 1.540       .   A
C181       C182 1.540       .   A
C182       H186 1.140       .   S
C182       C183 1.540       .   A
C183       C630 1.752       .   S
O247       C257 1.250       .   A
C188       C193 1.540       .   A
C188       C189 1.540       .   A
C189       H194 1.140       .   S
C189       C190 1.540       .   A
C84         H89 1.140       .   S
C260       C503 1.607   1_455   S
C509       C510 1.540       .   A
C463       C464 1.540       .   A
C462       C463 1.540       .   A
C461       C462 1.540       .   A
C460       C461 1.540       .   A
C460       C131 1.608   1_565   S
C500       C501 1.540       .   A
C500        C83 1.607       .   S
C501       C502 1.540       .   A
C502       C503 1.540       .   A
C503       C504 1.540       .   A
C469       C470 1.540       .   A
O119      Cu127 1.951       .   S
Cu127     Cu128 2.630       .   S
C559       H565 1.140       .   S
C210       C211 1.540       .   A
C209       C210 1.540       .   A
C206       C211 1.540       .   A
C341       C342 1.540       .   A
C340       C341 1.540       .   A
C602       C603 1.540       .   A
C603       C146 1.751       .   S
C603       C604 1.540       .   A
C601       C602 1.540       .   A
C602       H607 1.140       .   S
C600       C601 1.540       .   A
C601       H606 1.140       .   S
C600       C137 1.751       .   S
C604       H608 1.140       .   S
C633       C634 1.540       .   A
C632       C633 1.540       .   A
C633       C190 1.752       .   S
C389       C390 1.540       .   A
C2           C3 1.540       .   A
C3           C4 1.540       .   A
C1           C2 1.540       .   A
C2           H7 1.140       .   S
C1           C6 1.540       .   A
C6           H9 1.140       .   S
C5           C6 1.540       .   A
C4           C5 1.540       .   A
C4           H8 1.140       .   S
C702       H707 1.140       .   S
C701       H706 1.140       .   S
C68         C69 1.540       .   A
C66         C67 1.540       .   A
C65         C66 1.540       .   A
C66         H71 1.140       .   S
C440        C67 1.751       .   S
C67         C68 1.540       .   A
C64        C410 1.608       .   S
C62        C290 1.615   1_655   S
C63        C423 1.608       .   S
C61        C340 1.615       .   S
C197       C413 1.608       .   S
C413       C414 1.540       .   A
C412       C413 1.540       .   A
C320       C321 1.540       .   A
C12        C320 1.615       .   S
C321       C322 1.540       .   A
C322       C323 1.540       .   A
C323       C324 1.540       .   A
C329       C330 1.540       .   A
C329       C334 1.540       .   A
C733       C734 1.540       .   A
C734       H738 1.140       .   S
C259       C733 1.610       .   S
C732       C733 1.540       .   A
C732       H737 1.140       .   S
C731       C732 1.540       .   A
C731       H736 1.140       .   S
C730       C731 1.540       .   A
C289       C294 1.540       .   A
C289       C290 1.540       .   A
C453       C454 1.540       .   A
C454       H458 1.140       .   S
C343        C19 1.615       .   S
C634       H638 1.140       .   S
C12         C13 1.540       .   A
C13         C14 1.540       .   A
C11         C12 1.540       .   A
C10         C11 1.540       .   A
C10        C330 1.616       .   S
C10         C15 1.540       .   A
C14         C15 1.540       .   A
C134       C135 1.540       .   A
C135       C136 1.540       .   A
C133       C134 1.540       .   A
C136       C137 1.540       .   A
C137       C138 1.540       .   A
C583       C133 1.608       .   S
C133       C138 1.540       .   A
C132       C553 1.608       .   S
C422       C423 1.540       .   A
C423       C424 1.540       .   A
C421       C422 1.540       .   A
C420       C421 1.540       .   A
C420       C101 1.608   1_655   S
C419       C420 1.540       .   A
C419       C424 1.540       .   A
C342       C343 1.540       .   A
C330       C331 1.540       .   A
C339       C340 1.540       .   A
C83         C88 1.540       .   A
C83         C84 1.540       .   A
C84         C85 1.540       .   A
C480        C85 1.623       .   S
C85         C86 1.540       .   A
C86         H90 1.140       .   S
C86         C87 1.540       .   A
C87         C88 1.540       .   A
C88         H91 1.140       .   S
C521       H526 1.140       .   S
C554       H558 1.140       .   S
C553       C554 1.540       .   A
C552       C553 1.540       .   A
C552       H557 1.140       .   S
C551       C552 1.540       .   A
C551       H556 1.140       .   S
C550       C551 1.540       .   A
O151      Cu159 1.951       .   S
O154      Cu159 1.951       .   S
O153      Cu159 1.951       .   S
O152      Cu159 1.951       .   S
C452       H457 1.140       .   S
C451       H456 1.140       .   S
C540       C105 1.751       .   S
C540       C541 1.540       .   A
C541       C542 1.540       .   A
C542       C543 1.540       .   A
C672       C673 1.540       .   A
C671       C672 1.540       .   A
C672       H677 1.140       .   S
C673       C674 1.540       .   A
C670       C671 1.540       .   A
C201       C670 1.623       .   S
C671       H676 1.140       .   S
C674       H678 1.140       .   S
C580       C581 1.540       .   A
C581       C582 1.540       .   A
C582       C583 1.540       .   A
C583       C584 1.540       .   A
C379       C384 1.540       .   A
C379       C380 1.540       .   A
C470       C471 1.540       .   A
C68         H72 1.140       .   S
C197       C202 1.540       .   A
C197       C198 1.540       .   A
C193       H196 1.140       .   S
C192       C193 1.540       .   A
C191       C192 1.540       .   A
C191       H195 1.140       .   S
C190       C191 1.540       .   A
C199       C200 1.540       .   A
C198       C199 1.540       .   A
C299       H305 1.140       .   S
C479       C480 1.540       .   A
C452       C453 1.540       .   A
C451       C452 1.540       .   A
C104       C105 1.540       .   A
C103       C104 1.540       .   A
C105       C106 1.540       .   A
C101       C106 1.540       .   A
C101       C102 1.540       .   A
C102       C103 1.540       .   A
C389       H395 1.140       .   S
C414       H418 1.140       .   S
C412       H417 1.140       .   S
C411       H416 1.140       .   S
C206       C207 1.540       .   A
C207       C208 1.540       .   A
C201       C202 1.540       .   A
C200       C201 1.540       .   A
C208       C209 1.540       .   A
C411       C412 1.540       .   A
C631       C632 1.540       .   A
C630       C631 1.540       .   A
C410       C411 1.540       .   A
C440       C441 1.540       .   A
C441       C442 1.540       .   A
C442       C443 1.540       .   A
C332       C333 1.540       .   A
C333       C334 1.540       .   A
C331       C332 1.540       .   A
C702       C703 1.540       .   A
C701       C702 1.540       .   A
C703       C704 1.540       .   A
C700       C701 1.540       .   A
C704       H708 1.140       .   S
C480       C481 1.540       .   A
C142       C143 1.540       .   A
C142       C147 1.540       .   A
C143       C144 1.540       .   A
C144       C145 1.540       .   A
C145       C146 1.540       .   A
C146       C147 1.540       .   A
C383       C384 1.540       .   A
C382       C383 1.540       .   A
C381       C382 1.540       .   A
C380       C381 1.540       .   A
