data_fog_v1-3c_triazine_Ch_v2-4c_Cu_1_Ch_1B_4H_Ch
_audit_creation_date              2020-02-03
_audit_creation_method            'tobacco_3.0'
_symmetry_space_group_name_H-M    'P1'
_symmetry_Int_Tables_number       1
_symmetry_cell_setting            triclinic
loop_
_symmetry_equiv_pos_as_xyz
  x,y,z
_cell_length_a                    40.80244829020637
_cell_length_b                    40.80244852146819
_cell_length_c                    39.67136401919007
_cell_angle_alpha                 90.00041919282847
_cell_angle_beta                  89.9995800818791
_cell_angle_gamma                 120.0055744539717
loop_
_atom_site_label
_atom_site_type_symbol
_atom_site_fract_x
_atom_site_fract_y
_atom_site_fract_z
C1         C    0.0100755799    0.7018790487    0.3081965350
N2         N    0.0037546912    0.6704566407    0.3332997010
C3         C    0.0351791113    0.6767775921    0.3584031660
N4         N    0.0729244201    0.7145209513    0.3584034650
C5         C    0.0792453088    0.7459433593    0.3333002990
N6         N    0.0478208887    0.7396224079    0.3081968340
C7         C    0.2846807370    0.9764905879    0.3081946186
N8         N    0.3161036403    0.9828119762    0.3332973920
C9         C    0.3097836142    0.9513876259    0.3584005741
N10        N    0.2720406848    0.9136418874    0.3584009827
C11        C    0.2406177815    0.9073204991    0.3332982093
N12        N    0.2469378075    0.9387448494    0.3081950272
C13        C    0.9513154207    0.3098658141    0.6415223350
N14        N    0.9135739062    0.2721186611    0.6415213481
C15        C    0.9072517197    0.2406975380    0.6666292282
N16        N    0.9386710476    0.2470235679    0.6917380952
C17        C    0.9764125621    0.2847707209    0.6917390821
N18        N    0.9827347486    0.3161918439    0.6666312019
C19        C    0.7018253470    0.0101351608    0.6917291518
N20        N    0.6704025805    0.0038126423    0.6666257681
C21        C    0.6767215893    0.0352370161    0.6415230168
N22        N    0.7144633646    0.0729839084    0.6415236493
C23        C    0.7458861311    0.0793064269    0.6666270330
N24        N    0.7395671223    0.0478820531    0.6917297843
O25        O    0.5163969864    0.9725648007    0.5405477353
O26        O    0.4396354582    0.9531183111    0.4733620358
O27        O    0.5069160280    0.9531880544    0.4735660234
O28        O    0.4491115090    0.9724950455    0.5403437328
O29        O    0.4795823791    1.0334399823    0.5263568625
O30        O    0.5373875380    1.0141343038    0.4595840571
O31        O    0.4701063283    1.0140632479    0.4593751655
O32        O    0.5468678565    1.0335097375    0.5265608650
Cu33      Cu    0.4752337364    0.9572793529    0.5082291480
Cu34      Cu    0.5112695784    1.0293486957    0.4916937528
C35        C    0.5429514363    1.0059052784    0.5434600296
C36        C    0.4435518785    0.9807227702    0.4564628712
C37        C    0.5306747794    0.9808130817    0.4567331327
C38        C    0.4558285353    1.0058149669    0.5431897682
O39        O    0.9530548433    0.4396978451    0.5265619456
O40        O    0.9725063303    0.5164606727    0.4593761265
O41        O    0.9724368581    0.4491802425    0.4595814464
O42        O    0.9531243146    0.5069831765    0.5263566078
O43        O    1.0140687378    0.5374533242    0.5403452530
O44        O    1.0333797694    0.4796496508    0.4735749499
O45        O    1.0334507534    0.5469308204    0.4733647718
O46        O    1.0139992665    0.4701679928    0.5405505909
Cu47      Cu    0.9572196595    0.4753005139    0.4916903661
Cu48      Cu    1.0292859372    0.5113281516    0.5082363514
C49        C    0.9806599149    0.4436145157    0.5434623840
C50        C    1.0058456818    0.5430141498    0.4564643335
C51        C    1.0057524031    0.4558897707    0.4567355585
C52        C    0.9807531937    0.5307388948    0.5431911589
C53        C    0.6184639937    0.9692731120    0.9733526524
N54        N    0.5806619189    0.9691505776    0.9734816526
C55        C    0.5743334718    0.9941939976    0.9986496825
N56        N    0.6058070995    1.0193599520    1.0236887123
C57        C    0.6436091742    1.0194824865    1.0235597120
N58        N    0.6499376213    0.9944390665    0.9983916821
C59        C    0.3680365047    1.0173590804    0.0265769032
N60        N    0.3365626512    0.9921934968    0.0015379061
C61        C    0.3428906520    0.9671500069   -0.0236303946
N62        N    0.3806925064    0.9672721006   -0.0237596981
C63        C    0.4121663600    0.9924376842    0.0012792990
N64        N    0.4058383591    1.0174811741    0.0264475997
C65        C    1.0172728824    0.3681310449    0.9733564746
N66        N    0.9921098905    0.3366554146    0.9983950862
C67        C    0.9670678654    0.3429810645    1.0235669861
N68        N    0.9671888321    0.3807823448    1.0237002745
C69        C    0.9923518240    0.4122579751    0.9986616629
N70        N    1.0173938491    0.4059323252    0.9734897629
C71        C    0.9692050483    0.6185345548    0.0265828608
N72        N    0.9690816940    0.5807320746    0.0264531289
C73        C    0.9941241355    0.5744031946    0.0012842816
N74        N    1.0192899314    0.6058767947   -0.0237548339
C75        C    1.0194132857    0.6436792749   -0.0236251020
N76        N    0.9943708442    0.6500081550    0.0015437454
C77        C    0.0347022498    0.3506921147    0.3598932920
N78        N    0.0032286564    0.3255288872    0.3348531492
C79        C    0.0095557416    0.3004853880    0.3096841340
N80        N    0.0473564202    0.3006051163    0.3095552617
C81        C    0.0788300136    0.3257683437    0.3345954046
N82        N    0.0725029284    0.3508118429    0.3597644197
C83        C    0.2851424403    0.3026017519    0.3066914026
N84        N    0.2473412246    0.3024809522    0.3068190605
C85        C    0.2410130519    0.3275248833    0.3319867019
N86        N    0.2724860949    0.3526896140    0.3570266855
C87        C    0.3102873106    0.3528104137    0.3568990276
N88        N    0.3166154833    0.3277664826    0.3317313861
O89        O    0.2863943467    0.1063601376    0.1932306181
O90        O    0.3058335041    0.1831218081    0.1260472552
O91        O    0.3057711326    0.1158449131    0.1262489025
O92        O    0.2864567168    0.1736419336    0.1930289531
O93        O    0.3474022370    0.2041167221    0.2070138081
O94        O    0.3667151412    0.1463189619    0.1402386159
O95        O    0.3667790243    0.2135965966    0.1400321102
O96        O    0.3473398669    0.1368349260    0.2072154732
Cu97      Cu    0.2905528977    0.1419618044    0.1583606126
Cu98      Cu    0.3626204733    0.1779949298    0.1749021158
C99        C    0.3140017848    0.1102792992    0.2101287992
C100       C    0.3391715862    0.2096774349    0.1231339292
C101       C    0.3390875026    0.1225576333    0.1234003988
C102       C    0.3140858684    0.1973991009    0.2098623295
C103       C    0.6839658791    0.7014205210    0.3066962761
N104       N    0.6588007543    0.6699475443    0.3317361563
C105       C    0.6337564218    0.6762757808    0.3569032716
N106       N    0.6338772142    0.7140769940    0.3570305068
C107       C    0.6590423390    0.7455499707    0.3319906266
N108       N    0.6840866715    0.7392217342    0.3068235113
C109       C    0.6358727088    0.9518651175    0.3598952643
N110       N    0.6610360092    0.9833385909    0.3348550541
C111       C    0.6860797611    0.9770114742    0.3096863632
N112       N    0.6859602127    0.9392108841    0.3095578826
C113       C    0.6607969123    0.9077374107    0.3345980928
N114       N    0.6357531603    0.9140645274    0.3597667836
O115       O    0.8497374109    0.6392191190    0.2072195344
O116       O    0.7729774889    0.6197803501    0.1400344423
O117       O    0.8402565698    0.6198471017    0.1402367300
O118       O    0.7824534226    0.6391523557    0.2070172319
O119       O    0.8129264761    0.7000982821    0.1930337817
O120       O    0.8707302632    0.6807943402    0.1262581839
O121       O    0.8034505425    0.6807262764    0.1260509921
O122       O    0.8802104644    0.7001650453    0.1932360842
Cu123     Cu    0.8085747647    0.6239374415    0.1749009387
Cu124     Cu    0.8446131886    0.6960079539    0.1583695878
C125       C    0.8762927156    0.6725589532    0.2101334492
C126       C    0.7768952378    0.6473864423    0.1231370773
C127       C    0.8640162106    0.6474728794    0.1234051376
C128       C    0.7891717428    0.6724725160    0.2098653890
O129       O    0.8401069998    0.2137123605    0.1401603249
O130       O    0.7825741230    0.1367380851    0.2071233965
O131       O    0.8498250917    0.2039904756    0.2071272482
O132       O    0.7728511262    0.1464550708    0.1401564759
O133       O    0.8033167353    0.1159938320    0.1261242132
O134       O    0.8802899415    0.1735299937    0.1930901284
O135       O    0.8130397321    0.1062768462    0.1930911338
O136       O    0.8705726089    0.1832511217    0.1261280622
Cu137     Cu    0.8085591634    0.1780031479    0.1749245059
Cu138     Cu    0.8445875686    0.1419860589    0.1583269529
C139       C    0.8638237316    0.2098313202    0.1232709219
C140       C    0.7893230004    0.1101578866    0.2099805369
C141       C    0.8764059270    0.1972459768    0.2099801745
C142       C    0.7767408049    0.1227432300    0.1232712843
C143       C    0.3433776822    0.3685962839    0.9748709524
N144       N    0.3370575771    0.3371697672    0.9999689140
C145       C    0.3684852542    0.3434841353    1.0250658913
N146       N    0.4062330366    0.3812250202    1.0250649071
C147       C    0.4125531417    0.4126515369    0.9999669454
N148       N    0.3811254645    0.4063371687    0.9748699681
C149       C    0.6431059068    0.6180630774    1.0250675260
N150       N    0.6053591839    0.5803211326    1.0250681355
C151       C    0.5739343887    0.5740022367    0.9999659312
N152       N    0.5802563163    0.6054252857    0.9748631174
C153       C    0.6180030392    0.6431672304    0.9748625079
N154       N    0.6494278344    0.6494861263    0.9999647122
C155       C    0.9518061814    0.6359330933    0.6400333737
N156       N    0.9140048575    0.6358120718    0.6401617212
C157       C    0.9076765581    0.6608550929    0.6653303410
N158       N    0.9391495826    0.6860191356    0.6903706133
C159       C    0.9769509065    0.6861401571    0.6902422658
N160       N    0.9832792059    0.6610971359    0.6650736459
C161       C    0.7013682703    0.6840186658    0.6932323483
N162       N    0.7391692959    0.6841390827    0.6931048072
C163       C    0.7454972932    0.6590950351    0.6679371650
N164       N    0.7140242648    0.6339305705    0.6428970637
C165       C    0.6762232392    0.6338101536    0.6430246048
N166       N    0.6698952419    0.6588542012    0.6681922471
O167       O    0.6391643483    0.8497928044    0.7927088666
O168       O    0.6197239198    0.7730333494    0.8598949473
O169       O    0.6197902562    0.8403122184    0.8596911911
O170       O    0.6390980002    0.7825090280    0.7929126378
O171       O    0.7000434941    0.8129824402    0.8068975834
O172       O    0.6807370624    0.8707862704    0.8736712328
O173       O    0.6806694137    0.8035067616    0.8738798930
O174       O    0.7001098421    0.8802662167    0.8066938123
Cu175     Cu    0.6238818804    0.8086303590    0.8250278202
Cu176     Cu    0.6959518815    0.8446692070    0.8415609395
C177       C    0.6725042109    0.8763482197    0.7897955538
C178       C    0.6473295510    0.7769513464    0.8767932058
C179       C    0.6474154507    0.8640720448    0.8765232440
C180       C    0.6724183112    0.7892275213    0.7900655156
C181       C    0.3506251858    0.0347716958    0.6400316169
N182       N    0.3254621612    0.0032984520    0.6650721202
C183       C    0.3004183099    0.0096256131    0.6902406581
N184       N    0.3005374831    0.0474260179    0.6903686928
C185       C    0.3257005077    0.0788992617    0.6653281895
N186       N    0.3507443590    0.0725721006    0.6401596516
C187       C    0.3025225946    0.2852318140    0.6932309519
N188       N    0.3023999747    0.2474296808    0.6931070645
C189       C    0.3274450516    0.2410987888    0.6679429366
N190       N    0.3526127484    0.2725700300    0.6429026960
C191       C    0.3527353683    0.3103721632    0.6430265833
N192       N    0.3276902914    0.3167030552    0.6681907113
O193       O    0.1829953230    0.3059775977    0.8738945479
O194       O    0.1062353260    0.2865368103    0.8067089328
O195       O    0.1735145415    0.2866038367    0.8069121466
O196       O    0.1157112000    0.3059105596    0.8736913192
O197       O    0.1461840706    0.3668561217    0.8597066098
O198       O    0.2039880519    0.3475507112    0.7929323412
O199       O    0.1367081966    0.3474823724    0.7927242234
O200       O    0.2134681935    0.3669231598    0.8599098385
Cu201     Cu    0.1418326560    0.2906949441    0.8415758056
Cu202     Cu    0.1778708635    0.3627650260    0.8250429656
C203       C    0.2095505472    0.3393175474    0.8768079102
C204       C    0.1101529723    0.3141424228    0.7898108611
C205       C    0.1972741194    0.3142292159    0.7900801206
C206       C    0.1224294002    0.3392307542    0.8765386507
O207       O    0.1159219693    0.8033901368    0.8738017614
O208       O    0.1734600765    0.8803583896    0.8068356776
O209       O    0.1062090335    0.8131060734    0.8068322812
O210       O    0.1831779109    0.8706473586    0.8738051580
O211       O    0.2136432808    0.8401841430    0.8597788825
O212       O    0.1366750628    0.7826422008    0.7928109089
O213       O    0.2039254464    0.8498951741    0.7928094021
O214       O    0.1463873391    0.7729269212    0.8597754859
Cu215     Cu    0.1419121062    0.8446560574    0.8415965831
Cu216     Cu    0.1779353094    0.8086292534    0.8250145804
C217       C    0.1226707588    0.7768090350    0.8766619697
C218       C    0.1971766568    0.8764762758    0.7899491938
C219       C    0.1100919749    0.7893899406    0.7899509097
C220       C    0.2097554407    0.8638953702    0.8766602538
O221       O    0.5469670677    0.5068498299    0.5264337327
O222       O    0.4699982432    0.4493124172    0.4594678767
O223       O    0.5372512930    0.5165627266    0.4594642062
O224       O    0.4797091187    0.4395946156    0.5264374004
O225       O    0.4492475548    0.4700622676    0.5404615023
O226       O    0.5067904854    0.5470296197    0.4734931655
O227       O    0.4395366793    0.4797800692    0.4734919785
O228       O    0.5165055037    0.5373174819    0.5404578346
Cu229     Cu    0.5112606104    0.4752995389    0.4916689042
Cu230     Cu    0.4752431366    0.5113303602    0.5082568071
C231       C    0.5430850611    0.5305682519    0.5433194658
C232       C    0.4434186859    0.4560616472    0.4566062455
C233       C    0.5305076292    0.5431437206    0.4566068431
C234       C    0.4559961178    0.4434861785    0.5433188682
C675       C    0.2409153980    0.2934110423    0.7037165997
C676       C    0.2756275981    0.2926417553    0.7179796054
C677       C    0.2846105571    0.2989612280    0.7559185419
C678       C    0.2588813160    0.3060499877    0.7795944727
C679       C    0.2241691158    0.3068192746    0.7653314670
C680       C    0.2151861569    0.3004998019    0.7273925306
H681       H    0.2342656751    0.2887329911    0.6756319325
H682       H    0.3103046886    0.2983920045    0.7664771687
H683       H    0.2655310388    0.3107280389    0.8076791400
H684       H    0.1894920254    0.3010690254    0.7168339038
C665       C    0.4026848511    0.3852967990    0.6307889279
C666       C    0.3792251472    0.3445202868    0.6174482746
C667       C    0.3809060391    0.3361526586    0.5798320725
C668       C    0.4060466349    0.3685615426    0.5555565236
C669       C    0.4295063388    0.4093380549    0.5688971770
C670       C    0.4278254470    0.4177056831    0.6065133791
H671       H    0.4014405545    0.3914910173    0.6586346879
H672       H    0.3635413029    0.3059697643    0.5699561778
H673       H    0.4072909315    0.3623673244    0.5277107636
H674       H    0.4451901832    0.4478885774    0.6163892737
C655       C    0.2755331549   -0.0170105767    0.7539934525
C656       C    0.2739310709   -0.0245346140    0.7158214556
C657       C    0.2471953994   -0.0644730929    0.7019229290
C658       C    0.2220618118   -0.0968875344    0.7261963994
C659       C    0.2236638958   -0.0893634971    0.7643683964
C660       C    0.2503995673   -0.0494250182    0.7782669229
H661       H    0.2953244961    0.0125542713    0.7642819722
H662       H    0.2460086964   -0.0700436225    0.6736677126
H663       H    0.2022704706   -0.1264523824    0.7159078797
H664       H    0.2515862703   -0.0438544886    0.8065221393
C645       C    0.3639449431    0.1595639932    0.6631637244
C646       C    0.3261647035    0.1220580120    0.6660239327
C647       C    0.2887925401    0.1224930441    0.6694957713
C648       C    0.2892006162    0.1604340573    0.6701074017
C649       C    0.3269808559    0.1979400385    0.6672471934
C650       C    0.3643530193    0.1975050064    0.6637753548
H651       H    0.3916100511    0.1592419564    0.6605936621
H652       H    0.2608265583    0.0947312639    0.6716129972
H653       H    0.2615355083    0.1607560941    0.6726774640
H654       H    0.3923190011    0.2252667866    0.6616581289
C635       C    0.6482400739    0.6124456668    0.5790748115
C636       C    0.6420675208    0.6073241270    0.6174459113
C637       C    0.6034815970    0.5770676629    0.6315431351
C638       C    0.5710682264    0.5519327386    0.6072692591
C639       C    0.5772407795    0.5570542785    0.5688981593
C640       C    0.6158267033    0.5873107425    0.5548009355
H641       H    0.6768036798    0.6348433091    0.5686392042
H642       H    0.5989114740    0.5732757598    0.6599457330
H643       H    0.5425046205    0.5295350964    0.6177048664
H644       H    0.6203968263    0.5911026456    0.5263983376
C625       C    0.6664999765    0.7245914461    0.7073935422
C626       C    0.6939734467    0.7108926561    0.7179668974
C627       C    0.7143667610    0.7229243035    0.7522222871
C628       C    0.7072866050    0.7486547409    0.7759043217
C629       C    0.6798131347    0.7623535310    0.7653309665
C630       C    0.6594198205    0.7503218836    0.7310755768
H631       H    0.6514036270    0.7156849020    0.6820356563
H632       H    0.7347031714    0.7127848885    0.7600497310
H633       H    0.7223829545    0.7575612851    0.8012622075
H634       H    0.6390834100    0.7604612985    0.7232481328
C615       C    1.0497336141    0.7147341872    0.7126442850
C616       C    1.0111085193    0.7126290998    0.7158227219
C617       C    1.0048963459    0.7356599614    0.7432750246
C618       C    1.0373092673    0.7607959105    0.7675488905
C619       C    1.0759343621    0.7629009979    0.7643704536
C620       C    1.0821465355    0.7398701363    0.7369181509
H621       H    1.0543322360    0.6976853676    0.6923224505
H622       H    0.9763059914    0.7341025121    0.7456285611
H623       H    1.0327106454    0.7778447302    0.7878707250
H624       H    1.1107368900    0.7414275857    0.7345646144
C605       C    0.8485882341    0.6673657948    0.6333302906
C606       C    0.8645297862    0.6603868406    0.6660238701
C607       C    0.8425284777    0.6529961099    0.6993273325
C608       C    0.8045856171    0.6525843333    0.6999372154
C609       C    0.7886440650    0.6595632874    0.6672436359
C610       C    0.8106453735    0.6669540182    0.6339401735
H611       H    0.8648749170    0.6728368552    0.6086770782
H612       H    0.8543276616    0.6478300789    0.7235280578
H613       H    0.7882989342    0.6471132728    0.7245904278
H614       H    0.7988461896    0.6721200491    0.6097394482
C595       C    0.5968060667    0.6914034205    0.9478784759
C596       C    0.6255103923    0.6774148970    0.9497575488
C597       C    0.6613706207    0.6960707649    0.9277069297
C598       C    0.6685265235    0.7287151563    0.9037772378
C599       C    0.6398221979    0.7427036798    0.9018981649
C600       C    0.6039619695    0.7240478119    0.9239487840
H601       H    0.5702601833    0.6775932326    0.9642016615
H602       H    0.6826185954    0.6857170999    0.9290971149
H603       H    0.6950724069    0.7425253442    0.8874540522
H604       H    0.5827139948    0.7344014769    0.9225585988
C585       C    0.2683086422    0.3427073893    0.9632526102
C586       C    0.3091103501    0.3610992678    0.9497612552
C587       C    0.3172658227    0.3723487941    0.9123480763
C588       C    0.2846195873    0.3652064419    0.8884262524
C589       C    0.2438178794    0.3468145635    0.9019176074
C590       C    0.2356624068    0.3355650372    0.9393307863
H591       H    0.2622714741    0.3343798179    0.9909480802
H592       H    0.3474673600    0.3859627531    0.9023606393
H593       H    0.2906567553    0.3735340133    0.8607307823
H594       H    0.2054608695    0.3219510781    0.9493182233
C575       C    0.4932347946    0.4555795686    0.9999685128
C576       C    0.4554937362    0.4555840034    0.9999666756
C577       C    0.4555027068    0.4933313215    0.9999646011
C578       C    0.4932527358    0.5310742050    0.9999643639
C579       C    0.5309937941    0.5310697702    0.9999662011
C580       C    0.5309848235    0.4933224521    0.9999682755
H581       H    0.4932281540    0.4276367487    0.9999700484
H582       H    0.4275669099    0.4933357987    0.9999632412
H583       H    0.4932593764    0.5590170249    0.9999628283
H584       H    0.5589206205    0.4933179749    0.9999696355
C565       C    0.7091446165    0.5994443958    0.0931974306
C566       C    0.7426451956    0.6398796667    0.0980312916
C567       C    0.7435011514    0.6731600306    0.0789361627
C568       C    0.7108565281    0.6660051238    0.0550071727
C569       C    0.6773559490    0.6255698530    0.0501733117
C570       C    0.6764999932    0.5922894890    0.0692684406
H571       H    0.7085109869    0.5748082823    0.1073327858
H572       H    0.7682981880    0.7030911276    0.0825135652
H573       H    0.7114901577    0.6906412374    0.0408718175
H574       H    0.6517029566    0.5623583920    0.0656910381
C555       C    0.7546550999    1.0377574580    0.2924279472
C556       C    0.7125669515    1.0111703634    0.2841067008
C557       C    0.6956132323    1.0169975859    0.2515122036
C558       C    0.7207476616    1.0494119028    0.2272389528
C559       C    0.7628358100    1.0759989973    0.2355601992
C560       C    0.7797895292    1.0701717749    0.2681546964
H561       H    0.7672052557    1.0334437998    0.3165563413
H562       H    0.6644591979    0.9973180974    0.2453518151
H563       H    0.7081975058    1.0537255610    0.2031105588
H564       H    0.8109435636    1.0898512634    0.2743150850
C545       C    0.6974177266    0.8262440650    0.3314352117
C546       C    0.6595091599    0.7887014768    0.3326843677
C547       C    0.6220110589    0.7891011025    0.3345435156
C548       C    0.6224215247    0.8270433164    0.3351535076
C549       C    0.6603300915    0.8645859046    0.3339043517
C550       C    0.6978281924    0.8641862789    0.3320452037
H551       H    0.7251760611    0.8259482382    0.3300589594
H552       H    0.5939500858    0.7613122248    0.3354681953
H553       H    0.5946631902    0.8273391432    0.3365297600
H554       H    0.7258891655    0.8919751566    0.3311205241
C535       C    0.5719516534    0.5688144528    0.3984719196
C536       C    0.5569950115    0.5772973382    0.4310289496
C537       C    0.5671753836    0.6181926361    0.4393120873
C538       C    0.5923123976    0.6506050486    0.4150381950
C539       C    0.6072690395    0.6421221632    0.3824811651
C540       C    0.5970886674    0.6012268653    0.3741980274
H541       H    0.5644155338    0.5385413102    0.3923402463
H542       H    0.5561048527    0.6244729319    0.4634109473
H543       H    0.5998485172    0.6808781912    0.4211698684
H544       H    0.6081591983    0.5949465695    0.3500991674
C525       C    0.7300824773    0.6847850544    0.2199103700
C526       C    0.7622993014    0.6798666245    0.2345986334
C527       C    0.7687856350    0.6820280886    0.2729690960
C528       C    0.7430551446    0.6891079827    0.2966512951
C529       C    0.7108383205    0.6940264125    0.2819630317
C530       C    0.7043519869    0.6918649484    0.2435925691
H531       H    0.7252809057    0.6831850095    0.1915062613
H532       H    0.7926326190    0.6783875527    0.2838425107
H533       H    0.7478567163    0.6907080275    0.3250554038
H534       H    0.6805050029    0.6955054843    0.2327191544
C515       C    0.3268650391    0.2670844384    0.1043217189
C516       C    0.3466765649    0.2439350526    0.0980262377
C517       C    0.3736399459    0.2534313994    0.0678044290
C518       C    0.3807918013    0.2860771319    0.0438781016
C519       C    0.3609802756    0.3092265176    0.0501735828
C520       C    0.3340168945    0.2997301709    0.0803953915
H521       H    0.3069051337    0.2600546752    0.1266937072
H522       H    0.3883052202    0.2362966068    0.0631435798
H523       H    0.4007517068    0.2931068950    0.0215061133
H524       H    0.3193516202    0.3168649634    0.0850562407
C505       C    0.3356612936    0.3836045490    0.4194349289
C506       C    0.3444412618    0.3792988172    0.3824782379
C507       C    0.3856329664    0.4001302986    0.3697959455
C508       C    0.4180447029    0.4252675119    0.3940703441
C509       C    0.4092647347    0.4295732437    0.4310270351
C510       C    0.3680730300    0.4087417622    0.4437093275
H511       H    0.3051687330    0.3681838419    0.4288231194
H512       H    0.3921331713    0.3969438705    0.3424403328
H513       H    0.4485372635    0.4406882189    0.3846821537
H514       H    0.3615728252    0.4119281904    0.4710649402
C495       C    0.2786795707    0.2343480574    0.2919046515
C496       C    0.2925351051    0.2757311290    0.2819595400
C497       C    0.3134696888    0.2913834981    0.2483317546
C498       C    0.3205487380    0.2656527954    0.2246490807
C499       C    0.3066932035    0.2242697237    0.2345941921
C500       C    0.2857586199    0.2086173547    0.2682219775
H501       H    0.2631825412    0.2227612388    0.3167979471
H502       H    0.3237261687    0.3220155960    0.2409693543
H503       H    0.3360457675    0.2772396140    0.1997557850
H504       H    0.2755021400    0.1779852568    0.2755843778
C485       C    0.1527885895    0.3512916316    0.3082994291
C486       C    0.1219790904    0.3262356741    0.3339013547
C487       C    0.1291120336    0.3015906561    0.3588929789
C488       C    0.1670544759    0.3020015955    0.3582826774
C489       C    0.1978639751    0.3270575529    0.3326807517
C490       C    0.1907310319    0.3517025710    0.3076891276
H491       H    0.1475083588    0.3695353462    0.2897991359
H492       H    0.1063071776    0.2830435455    0.3778442242
H493       H    0.1723347066    0.2837578808    0.3767829706
H494       H    0.2135358879    0.3702496816    0.2887378823
C475       C   -0.0563804152    0.2162218675    0.2409330246
C476       C   -0.0894343631    0.2237321447    0.2355593189
C477       C   -0.0900731136    0.2563759597    0.2544584485
C478       C   -0.0576579162    0.2815094974    0.2787312839
C479       C   -0.0246039683    0.2739992202    0.2841049896
C480       C   -0.0239652178    0.2413554052    0.2652058600
H481       H   -0.0559075739    0.1920569655    0.2269427598
H482       H   -0.1145395486    0.2619360733    0.2504814487
H483       H   -0.0581307575    0.3056743994    0.2927215487
H484       H    0.0005012172    0.2357952916    0.2691828598
C465       C    1.0887701224    0.7019228571   -0.0427389703
C466       C    1.0459039543    0.6778336683   -0.0492064189
C467       C    1.0281758542    0.6861549662   -0.0799490147
C468       C    1.0533139221    0.7185654528   -0.1042241620
C469       C    1.0961800902    0.7426546416   -0.0977567134
C470       C    1.1139081903    0.7343333438   -0.0670141175
H471       H    1.1018935212    0.6957629353   -0.0199814643
H472       H    0.9964459079    0.6683244976   -0.0847371701
H473       H    1.0401905233    0.7247253746   -0.1269816680
H474       H    1.1456381367    0.7521638124   -0.0622259622
C455       C    0.9165054440    0.6399555846    0.0368495824
C456       C    0.9423408618    0.6259251161    0.0513103106
C457       C    0.9424460472    0.6189732486    0.0894547275
C458       C    0.9167158149    0.6260518496    0.1131384160
C459       C    0.8908803971    0.6400823181    0.0986776878
C460       C    0.8907752117    0.6470341856    0.0605332709
H461       H    0.9164275794    0.6451017722    0.0086128063
H462       H    0.9615693350    0.6085877256    0.1001597143
H463       H    0.9167936795    0.6209056619    0.1413751921
H464       H    0.8716519239    0.6574197086    0.0498282841
C445       C    1.0778366925    0.3582682613    0.9631044394
C446       C    1.0441208438    0.3607523878    0.9486375008
C447       C    1.0361352926    0.3561650261    0.9104806240
C448       C    1.0618655901    0.3490935379    0.8867906858
C449       C    1.0955814387    0.3466094114    0.9012576244
C450       C    1.1035669899    0.3511967731    0.9394145012
H451       H    1.0837480745    0.3616641005    0.9913504391
H452       H    1.0111786886    0.3580036225    0.8997710399
H453       H    1.0559542080    0.3456976987    0.8585446861
H454       H    1.1285235940    0.3493581766    0.9501240853
C435       C    1.0306998786    0.4928539589    1.0017665753
C436       C    0.9928232339    0.4553863229    0.9993592426
C437       C    0.9553613351    0.4558629489    0.9975656395
C438       C    0.9557760809    0.4938072108    0.9981793691
C439       C    0.9936527256    0.5312748468    1.0005867019
C440       C    1.0311146244    0.5307982208    1.0023803050
H441       H    1.0584314141    0.4925011319    1.0030943075
H442       H    0.9273239917    0.4281295530    0.9957836836
H443       H    0.9280445453    0.4941600378    0.9968516370
H444       H    1.0591519678    0.5585316167    1.0041622609
C425       C    0.9140473792    0.2688194992    1.0352721003
C426       C    0.9405803135    0.3088211502    1.0491462909
C427       C    0.9419787329    0.3164078434    1.0872931446
C428       C    0.9168442178    0.2839928855    1.1115658077
C429       C    0.8903112834    0.2439912344    1.0976916171
C430       C    0.8889128641    0.2364045413    1.0595447634
H431       H    0.9130121856    0.2632033757    1.0070335203
H432       H    0.9616183609    0.3460171634    1.0975639785
H433       H    0.9178794113    0.2896090090    1.1398043877
H434       H    0.8692732361    0.2067952212    1.0492739295
C415       C    0.2747216460    0.8803480330   -0.0894533971
C416       C    0.2439112371    0.8903853146   -0.0977593435
C417       C    0.2455126374    0.9255599702   -0.0817910169
C418       C    0.2779244467    0.9506973441   -0.0575167437
C419       C    0.3087348556    0.9406600625   -0.0492107972
C420       C    0.3071334553    0.9054854070   -0.0651791239
H421       H    0.2735361938    0.8543096517   -0.1012741064
H422       H    0.2227069329    0.9329906435   -0.0879385436
H423       H    0.2791098989    0.9767357255   -0.0456960343
H424       H    0.3299391598    0.8980547336   -0.0590315972
C405       C    0.3655511453    1.0739613431    0.1122536237
C406       C    0.3464814287    1.0956886475    0.0986705042
C407       C    0.3344922871    1.0916856613    0.0614055315
C408       C    0.3415728621    1.0659553706    0.0377236783
C409       C    0.3606425786    1.0442280662    0.0513067978
C410       C    0.3726317202    1.0482310524    0.0885717705
H411       H    0.3744262241    1.0769245926    0.1398393827
H412       H    0.3203765713    1.1077680081    0.0513501754
H413       H    0.3326977832    1.0629921210    0.0101379193
H414       H    0.3867474361    1.0321487056    0.0986271266
C395       C    0.6666232747    0.9529817336    0.9392934372
C396       C    0.6258588568    0.9424023578    0.9486202110
C397       C    0.5921753043    0.9060932026    0.9342647220
C398       C    0.5992561697    0.8803634231    0.9105824592
C399       C    0.6400205877    0.8909427990    0.9012556854
C400       C    0.6737041402    0.9272519542    0.9156111744
H401       H    0.6915578525    0.9798599395    0.9499202278
H402       H    0.5620005610    0.8982612371    0.9411679125
H403       H    0.5743215919    0.8534852173    0.8999556687
H404       H    0.7038788835    0.9350839197    0.9087079839
C385       C    0.5229441512    1.0144444361    1.0276361509
C386       C    0.5311922757    0.9937267668    0.9993492375
C387       C    0.5014980404    0.9725981716    0.9716775773
C388       C    0.4635556806    0.9721872456    0.9722928307
C389       C    0.4553075562    0.9929049149    1.0005797441
C390       C    0.4850017915    1.0140335102    1.0282514042
H391       H    0.5449255982    1.0300850845    1.0481203668
H392       H    0.5076023330    0.9572623577    0.9507388288
H393       H    0.4415742337    0.9565465972    0.9518086147
H394       H    0.4788974988    1.0293693240    1.0491901527
C375       C    0.7162817099    1.0763810742    1.0350470240
C376       C    0.6777642428    1.0459741456    1.0491408273
C377       C    0.6716575225    1.0407059297    1.0875093014
C378       C    0.7040682693    1.0658446423    1.1117839723
C379       C    0.7425857363    1.0962515709    1.0976901690
C380       C    0.7486924567    1.1015197868    1.0593216949
H381       H    0.7208022691    1.0802809223    1.0066443873
H382       H    0.6431468370    1.0181986625    1.0979426988
H383       H    0.6995477101    1.0619447941    1.1401866090
H384       H    0.7772031422    1.1240270540    1.0488882975
C365       C    1.0597512915    0.4072417483    0.4065486517
C366       C    1.0273076085    0.3775626862    0.3846296517
C367       C    0.9877836434    0.3736118807    0.3863954252
C368       C    0.9807033613    0.3993401371    0.4100801988
C369       C    1.0131470443    0.4290191992    0.4319991989
C370       C    1.0526710094    0.4329700047    0.4302334253
H371       H    1.0890092917    0.4101663706    0.4052415206
H372       H    0.9637676937    0.3516434194    0.3701711152
H373       H    0.9514453612    0.3964155148    0.4113873299
H374       H    1.0766869591    0.4549384660    0.4464577354
C355       C    1.0063206814    0.5968314714    0.5778294096
C356       C    0.9733594695    0.5576078813    0.5679268592
C357       C    0.9333184757    0.5441124040    0.5817097159
C358       C    0.9262386937    0.5698405166    0.6053951230
C359       C    0.9591999055    0.6090641067    0.6152976734
C360       C    0.9992408994    0.6225595841    0.6015148167
H361       H    1.0359614171    0.6068216300    0.5676265157
H362       H    0.9089194366    0.5150788149    0.5743803195
H363       H    0.8965979579    0.5598503580    0.6155980169
H364       H    1.0236399384    0.6515931731    0.6088442131
C345       C    0.5761200599    0.9508341602    0.4445883655
C346       C    0.5575448552    0.9734190770    0.4319984171
C347       C    0.5646985393    0.9889240164    0.3957242501
C348       C    0.5904274283    0.9818440391    0.3720400314
C349       C    0.6090026330    0.9592591223    0.3846299798
C350       C    0.6018489489    0.9437541828    0.4209041469
H351       H    0.5708244755    0.9393564777    0.4714406710
H352       H    0.5509494652    1.0056417823    0.3864040671
H353       H    0.5957230127    0.9933217215    0.3451877259
H354       H    0.6155980230    0.9270364170    0.4302243299
C335       C    0.4107058754    1.0240515172    0.6298537828
C336       C    0.3774985126    1.0273749385    0.6152941664
C337       C    0.3700194978    1.0236167527    0.5770510761
C338       C    0.3957478457    1.0165351455    0.5533676022
C339       C    0.4289552085    1.0132117241    0.5679272187
C340       C    0.4364342233    1.0169699100    0.6061703090
H341       H    0.4162422889    1.0268335509    0.6581636030
H342       H    0.3454392892    1.0260766184    0.5662728894
H343       H    0.3902114322    1.0137531118    0.5250577821
H344       H    0.4610144319    1.0145100443    0.6169484956
C325       C    0.7116349205   -0.0154320600    0.7524578921
C326       C    0.6943192894   -0.0241135970    0.7168336382
C327       C    0.6698491478   -0.0654398467    0.7051380989
C328       C    0.6626946373   -0.0980845595    0.7290668135
C329       C    0.6800102685   -0.0894030226    0.7646910674
C330       C    0.7044804101   -0.0480767728    0.7763866067
H331       H    0.7297491812    0.0151600989    0.7611156290
H332       H    0.6570314047   -0.0718671974    0.6787687827
H333       H    0.6445803767   -0.1286767184    0.7204090766
H334       H    0.7172981532   -0.0416494222    0.8027559229
C315       C    0.6369632237    0.0060039568    0.5832212795
C316       C    0.6424808329    0.0277290567    0.6164221197
C317       C    0.6153541220    0.0422962472    0.6256923634
C318       C    0.5827098018    0.0351383378    0.6017617669
C319       C    0.5771921926    0.0134132379    0.5685609268
C320       C    0.6043189036   -0.0011539526    0.5592906831
H321       H    0.6570440357   -0.0047795479    0.5763588913
H322       H    0.6194373782    0.0583775499    0.6502678007
H323       H    0.5626289898    0.0459218424    0.6086241551
H324       H    0.6002356474   -0.0172352554    0.5347152458
C305       C    1.0321701765    0.2705924107    0.7118902977
C306       C    1.0106399369    0.2922876430    0.7168379996
C307       C    1.0217525275    0.3211518041    0.7457226735
C308       C    1.0543953579    0.3283207329    0.7696596455
C309       C    1.0759255976    0.3066255006    0.7647119435
C310       C    1.0648130069    0.2777613395    0.7358272696
H311       H    1.0239439730    0.2492254343    0.6905081365
H312       H    1.0058162723    0.3372114514    0.7493858591
H313       H    1.0626215614    0.3496877093    0.7910418066
H314       H    1.0807492621    0.2617016923    0.7321640841
C295       C    0.8643156562    0.1600097776    0.6666288010
C296       C    0.8643123969    0.1977514236    0.6666286441
C297       C    0.8265656661    0.1977436285    0.6666279737
C298       C    0.7888221946    0.1599941873    0.6666274602
C299       C    0.7888254539    0.1222525412    0.6666276171
C300       C    0.8265721847    0.1222603363    0.6666282875
H301       H    0.8922580413    0.1600155480    0.6666292973
H302       H    0.8265620590    0.2256798606    0.6666278575
H303       H    0.7608798094    0.1599884169    0.6666269640
H304       H    0.8265757918    0.0943241043    0.6666284037
C285       C    1.0024471944    0.4153875630    0.5958889975
C286       C    0.9731496829    0.4093837745    0.5685591868
C287       C    0.9366901563    0.3707363764    0.5651625488
C288       C    0.9295281413    0.3380927667    0.5890957214
C289       C    0.9588256528    0.3440965552    0.6164255321
C290       C    0.9952851793    0.3827439533    0.6198221701
H291       H    1.0294367140    0.4439966760    0.5984033919
H292       H    0.9150030886    0.3662911704    0.5449330126
H293       H    0.9025386216    0.3094836538    0.5865813270
H294       H    1.0169722470    0.3871891593    0.6400517064
C275       C    0.3078519156    1.0124289689    0.2474202519
C276       C    0.2921868199    1.0107400174    0.2830901211
C277       C    0.2836761652    1.0416959921    0.2948315781
C278       C    0.2908306062    1.0743409183    0.2709031659
C279       C    0.3064957019    1.0760298697    0.2352332967
C280       C    0.3150063566    1.0450738951    0.2234918396
H281       H    0.3141520106    0.9895135071    0.2387285239
H282       H    0.2720806477    1.0404468159    0.3212346601
H283       H    0.2845305111    1.0972563800    0.2795948938
H284       H    0.3266018741    1.0463230713    0.1970887576
C265       C    0.3453809499    0.9739889798    0.4193578052
C266       C    0.3440233182    0.9588963326    0.3835008775
C267       C    0.3753101147    0.9509625508    0.3715747949
C268       C    0.4079545428    0.9581214163    0.3955056401
C269       C    0.4093121745    0.9732140635    0.4313625677
C270       C    0.3780253781    0.9811478453    0.4432886503
H271       H    0.3222205941    0.9798620391    0.4281862040
H272       H    0.3743061907    0.9397907759    0.3450332471
H273       H    0.4311148986    0.9522483570    0.3866772413
H274       H    0.3790293021    0.9923196202    0.4698301982
C255       C    0.1599308123    0.7888887298    0.3332991157
C256       C    0.1221856343    0.7888849267    0.3332997429
C257       C    0.1221863671    0.8266281261    0.3332998813
C258       C    0.1599322779    0.8643751286    0.3332993925
C259       C    0.1976774560    0.8643789317    0.3332987653
C260       C    0.1976767232    0.8266357323    0.3332986270
H261       H    0.1599302699    0.7609489587    0.3332990133
H262       H    0.0942475204    0.8266265055    0.3333003456
H263       H    0.1599328204    0.8923148997    0.3332994950
H264       H    0.2256155698    0.8266373529    0.3332981627
C245       C   -0.0482509204    0.7080213343    0.2251055628
C246       C   -0.0894605988    0.6800645190    0.2352363328
C247       C   -0.0980255306    0.6592621855    0.2692957621
C248       C   -0.0653807840    0.6664166675    0.2932244214
C249       C   -0.0241711057    0.6943734828    0.2830936514
C250       C   -0.0156061739    0.7151758163    0.2490342221
H251       H   -0.0419106462    0.7234204642    0.1998927385
H252       H   -0.1285290591    0.6385679918    0.2767956000
H253       H   -0.0717210582    0.6510175376    0.3184372458
H254       H    0.0148973547    0.7358700100    0.2415343843
C235       C    0.0296113017    0.5792800978    0.3958981171
C236       C    0.0133537656    0.5772517807    0.4313649341
C237       C    0.0042548604    0.6078675538    0.4429005667
C238       C    0.0114134914    0.6405116441    0.4189693823
C239       C    0.0276710275    0.6425399612    0.3835025653
C240       C    0.0367699327    0.6119241881    0.3719669327
H241       H    0.0363468549    0.5566164736    0.3873587527
H242       H   -0.0077791980    0.6063671695    0.4691533437
H243       H    0.0046779382    0.6631752683    0.4275087467
H244       H    0.0488039911    0.6134245724    0.3457141557
loop_
_geom_bond_atom_site_label_1
_geom_bond_atom_site_label_2
_geom_bond_distance
_geom_bond_site_symmetry_2
_ccdc_geom_bond_type
C510       H514 1.140       .   S
C507       H512 1.140       .   S
C508       H513 1.140       .   S
N156       C157 1.540       .   A
C155       N156 1.540       .   A
C505       H511 1.140       .   S
O28        Cu33 1.951       .   S
O28         C38 1.250       .   A
O29        Cu34 1.951       .   S
O29         C38 1.250       .   A
O26        Cu33 1.951       .   S
O26         C36 1.250       .   A
O27        Cu33 1.951       .   S
O27         C37 1.250       .   A
O25         C35 1.250       .   A
O25        Cu33 1.951       .   S
C555       C560 1.540       .   A
C560       H564 1.140       .   S
C559       C560 1.540       .   A
C248       C249 1.540       .   A
C247       C248 1.540       .   A
C248       H253 1.140       .   S
C566       C126 1.616       .   S
C566       C567 1.540       .   A
C565       C566 1.540       .   A
C567       C568 1.540       .   A
C567       H572 1.140       .   S
C565       C570 1.540       .   A
C565       H571 1.140       .   S
C568       C569 1.540       .   A
C568       H573 1.140       .   S
C569       C149 1.616   1_554   S
C569       C570 1.540       .   A
C246       C247 1.540       .   A
C247       H252 1.140       .   S
C245       C246 1.540       .   A
C246       C125 1.616   1_455   S
C245       C250 1.540       .   A
C245       H251 1.140       .   S
C159       N160 1.540       .   A
C155       N160 1.540       .   A
N162       C163 1.540       .   A
C161       N162 1.540       .   A
N164       C165 1.540       .   A
C163       N164 1.540       .   A
C165       N166 1.540       .   A
C161       N166 1.540       .   A
C376       C377 1.540       .   A
C376        C57 1.623       .   S
C375       C376 1.540       .   A
C457       H462 1.140       .   S
C458       H463 1.140       .   S
C455       H461 1.140       .   S
C460       H464 1.140       .   S
C338       H343 1.140       .   S
C337       H342 1.140       .   S
C335       H341 1.140       .   S
C340       H344 1.140       .   S
C479        C79 1.623       .   S
C479       C480 1.540       .   A
C478       C479 1.540       .   A
C113       N114 1.540       .   A
C109       N114 1.540       .   A
C667       H672 1.140       .   S
C666       C667 1.540       .   A
C667       C668 1.540       .   A
C665       C666 1.540       .   A
C666       C191 1.623       .   S
C109       N110 1.540       .   A
N110       C111 1.540       .   A
O167      Cu175 1.951       .   S
O167       C177 1.250       .   A
N112       C113 1.540       .   A
C111       N112 1.540       .   A
O168      Cu175 1.951       .   S
O168       C178 1.250       .   A
O169      Cu175 1.951       .   S
O169       C179 1.250       .   A
C669       C670 1.540       .   A
C668       C669 1.540       .   A
C669       C234 1.623       .   S
C668       H673 1.140       .   S
C318       C319 1.540       .   A
C318       H323 1.140       .   S
C317       C318 1.540       .   A
C640       H644 1.140       .   S
C235       C240 1.540       .   A
C235       C236 1.540       .   A
C235       H241 1.140       .   S
C637       H642 1.140       .   S
C638       H643 1.140       .   S
C635       H641 1.140       .   S
C589       C590 1.540       .   A
C590       H594 1.140       .   S
C585       C590 1.540       .   A
C597       H602 1.140       .   S
C597       C598 1.540       .   A
C596       C597 1.540       .   A
C596       C153 1.616       .   S
C595       C596 1.540       .   A
C595       C600 1.540       .   A
C595       H601 1.140       .   S
O210      Cu215 1.951       .   S
O209      Cu215 1.951       .   S
O208      Cu215 1.951       .   S
O207      Cu215 1.951       .   S
Cu215     Cu216 2.630       .   S
O211      Cu216 1.951       .   S
O212      Cu216 1.951       .   S
O213      Cu216 1.951       .   S
O214      Cu216 1.951       .   S
C598       H603 1.140       .   S
C598       C599 1.540       .   A
C285       H291 1.140       .   S
C288       H293 1.140       .   S
C287       H292 1.140       .   S
C290       H294 1.140       .   S
C348       H353 1.140       .   S
C348       C349 1.540       .   A
C347       C348 1.540       .   A
C349       C350 1.540       .   A
C109       C349 1.608       .   S
C15        C296 1.752       .   S
C15         N16 1.540       .   A
N14         C15 1.540       .   A
C310       H314 1.140       .   S
C305       C310 1.540       .   A
C309       C310 1.540       .   A
C339       C340 1.540       .   A
C335       C340 1.540       .   A
C37        C346 1.608       .   S
C346       C347 1.540       .   A
C345       C346 1.540       .   A
C347       H352 1.140       .   S
C345       H351 1.140       .   S
C345       C350 1.540       .   A
C488       H493 1.140       .   S
C487       H492 1.140       .   S
C485       H491 1.140       .   S
C490       H494 1.140       .   S
C618       C619 1.540       .   A
C619       C620 1.540       .   A
C219       C619 1.623   1_455   S
C316        C21 1.615       .   S
C315       C316 1.540       .   A
C316       C317 1.540       .   A
C526       C527 1.540       .   A
C526       C128 1.608       .   S
C525       C526 1.540       .   A
C527       H532 1.140       .   S
C527       C528 1.540       .   A
C525       C530 1.540       .   A
C525       H531 1.140       .   S
C519       C520 1.540       .   A
C515       C520 1.540       .   A
C520       H524 1.140       .   S
C287       C288 1.540       .   A
C288       C289 1.540       .   A
C286       C287 1.540       .   A
C285       C286 1.540       .   A
C286        C49 1.615       .   S
C285       C290 1.540       .   A
C249       C250 1.540       .   A
C249         C1 1.616       .   S
C528       H533 1.140       .   S
C528       C529 1.540       .   A
C529       C530 1.540       .   A
C529       C103 1.608       .   S
C449       C206 1.607   1_655   S
C449       C450 1.540       .   A
C448       C449 1.540       .   A
C448       H453 1.140       .   S
C447       C448 1.540       .   A
C665       H671 1.140       .   S
C445       C450 1.540       .   A
C445       C446 1.540       .   A
C445       H451 1.140       .   S
C446       C447 1.540       .   A
C447       H452 1.140       .   S
O172       C179 1.251       .   A
O172      Cu176 1.951       .   S
C113       C549 1.751       .   S
C440       H444 1.140       .   S
C439       C440 1.540       .   A
C435       C440 1.540       .   A
C556       C111 1.623       .   S
O89         C99 1.250       .   A
O89        Cu97 1.951       .   S
C420       H424 1.140       .   S
C417       H422 1.140       .   S
C418       H423 1.140       .   S
C415       H421 1.140       .   S
C380       H384 1.140       .   S
C378       H383 1.140       .   S
C377       H382 1.140       .   S
C375       H381 1.140       .   S
N158       C159 1.540       .   A
C157       N158 1.540       .   A
C239       C240 1.540       .   A
C240       H244 1.140       .   S
C540       H544 1.140       .   S
C535       H541 1.140       .   S
C538       H543 1.140       .   S
C537       H542 1.140       .   S
C509       C232 1.623       .   S
O222       C232 1.250       .   A
O227       C232 1.250       .   A
O223       C233 1.250       .   A
C536       C233 1.623       .   S
O226       C233 1.251       .   A
O221       C231 1.250       .   A
O228       C231 1.250       .   A
C639       C231 1.623       .   S
C236        C50 1.615   1_455   S
C236       C237 1.540       .   A
C237       H242 1.140       .   S
C237       C238 1.540       .   A
O225       C234 1.250       .   A
O224       C234 1.250       .   A
C295       C296 1.540       .   A
C295       H301 1.140       .   S
C295       C300 1.540       .   A
C238       H243 1.140       .   S
C238       C239 1.540       .   A
C239         C3 1.615       .   S
C296       C297 1.540       .   A
C297       C298 1.540       .   A
C297       H302 1.140       .   S
O122      Cu124 1.951       .   S
O122       C125 1.250       .   A
O120       C127 1.251       .   A
O120      Cu124 1.951       .   S
O121       C126 1.250       .   A
O121      Cu124 1.951       .   S
O129       C139 1.250       .   A
O129      Cu137 1.951       .   S
C628       C629 1.540       .   A
C180       C629 1.608       .   S
C629       C630 1.540       .   A
C628       H633 1.140       .   S
C627       C628 1.540       .   A
C21         N22 1.540       .   A
N20         C21 1.540       .   A
Cu175     Cu176 2.630       .   S
O170      Cu175 1.951       .   S
C620       H624 1.140       .   S
C615       C620 1.540       .   A
N152       C153 1.540       .   A
C151       N152 1.540       .   A
O174      Cu176 1.951       .   S
O171      Cu176 1.951       .   S
O173      Cu176 1.951       .   S
C625       H631 1.140       .   S
C625       C630 1.540       .   A
C625       C626 1.540       .   A
C627       H632 1.140       .   S
C626       C627 1.540       .   A
C161       C626 1.608       .   S
C327       H332 1.140       .   S
C328       H333 1.140       .   S
C325       H331 1.140       .   S
C330       H334 1.140       .   S
C17        C306 1.615       .   S
C17         N18 1.540       .   A
N16         C17 1.540       .   A
C450       H454 1.140       .   S
O193      Cu201 1.951       .   S
O193       C203 1.250       .   A
O197      Cu202 1.951       .   S
O197       C206 1.250       .   A
O196       C206 1.250       .   A
O196      Cu201 1.951       .   S
O195      Cu201 1.951       .   S
O195       C205 1.250       .   A
O194      Cu201 1.951       .   S
O194       C204 1.250       .   A
O199      Cu202 1.951       .   S
O199       C204 1.250       .   A
O198      Cu202 1.951       .   S
O198       C205 1.251       .   A
C457       C458 1.540       .   A
C456       C457 1.540       .   A
C250       H254 1.140       .   S
C497       C498 1.540       .   A
C498       H503 1.140       .   S
C498       C499 1.540       .   A
C499       C500 1.540       .   A
C102       C499 1.608       .   S
C496       C497 1.540       .   A
C495       C496 1.540       .   A
C496        C83 1.608       .   S
C497       H502 1.140       .   S
C495       C500 1.540       .   A
C495       H501 1.140       .   S
C489       C490 1.540       .   A
C485       C490 1.540       .   A
C509       C510 1.540       .   A
C505       C510 1.540       .   A
C658       H663 1.140       .   S
C657       C658 1.540       .   A
C658       C659 1.540       .   A
C218       C659 1.623   1_565   S
C659       C660 1.540       .   A
C307       C308 1.540       .   A
C308       H313 1.140       .   S
C308       C309 1.540       .   A
C309       C204 1.615   1_655   S
C306       C307 1.540       .   A
C305       C306 1.540       .   A
C655       H661 1.140       .   S
C655       C656 1.540       .   A
C655       C660 1.540       .   A
C656       C657 1.540       .   A
C656       C183 1.623       .   S
C657       H662 1.140       .   S
C645       C650 1.540       .   A
C650       H654 1.140       .   S
C649       C650 1.540       .   A
C300       H304 1.140       .   S
C299       C300 1.540       .   A
C516       C100 1.616       .   S
C516       C517 1.540       .   A
C515       C516 1.540       .   A
C515       H521 1.140       .   S
C610       H614 1.140       .   S
C605       H611 1.140       .   S
C608       H613 1.140       .   S
C607       H612 1.140       .   S
C587       H592 1.140       .   S
C588       H593 1.140       .   S
C585       H591 1.140       .   S
C38        C339 1.609       .   S
C35        C319 1.615   1_565   S
O32         C35 1.250       .   A
O30         C37 1.251       .   A
O31         C36 1.250       .   A
C36        C269 1.615       .   S
O221      Cu229 1.951       .   S
O223      Cu229 1.951       .   S
O222      Cu229 1.951       .   S
O224      Cu229 1.951       .   S
Cu229     Cu230 2.630       .   S
C153       N154 1.540       .   A
C399       C400 1.540       .   A
C400       H404 1.140       .   S
C395       C400 1.540       .   A
N150       C151 1.540       .   A
C151       C579 1.752       .   S
C157       C606 1.751       .   S
C155       C359 1.608       .   S
C405       C406 1.540       .   A
C101       C406 1.608   1_545   S
C406       C407 1.540       .   A
C408       C409 1.540       .   A
C409        C59 1.608       .   S
C409       C410 1.540       .   A
C408       H413 1.140       .   S
C407       C408 1.540       .   A
C159       C616 1.623       .   S
C71         N76 1.540       .   A
C456        C71 1.608       .   S
C71         N72 1.540       .   A
C395       H401 1.140       .   S
C395       C396 1.540       .   A
C397       C398 1.540       .   A
C397       H402 1.140       .   S
C396       C397 1.540       .   A
C396        C53 1.608       .   S
C179       C399 1.608       .   S
C398       C399 1.540       .   A
C398       H403 1.140       .   S
C648       H653 1.140       .   S
C500       H504 1.140       .   S
C276       C277 1.540       .   A
C275       C276 1.540       .   A
C276         C7 1.616       .   S
C277       H282 1.140       .   S
C277       C278 1.540       .   A
C275       H281 1.140       .   S
C275       C280 1.540       .   A
C269       C270 1.540       .   A
C270       H274 1.140       .   S
C265       C270 1.540       .   A
C278       H283 1.140       .   S
C278       C279 1.540       .   A
C99        C279 1.616   1_545   S
C279       C280 1.540       .   A
O228      Cu230 1.951       .   S
C475       C476 1.540       .   A
C476       C477 1.540       .   A
C476       C141 1.623   1_455   S
C477       C478 1.540       .   A
C477       H482 1.140       .   S
C579       C580 1.540       .   A
C578       C579 1.540       .   A
C577       C578 1.540       .   A
C578       H583 1.140       .   S
C575       C580 1.540       .   A
C575       H581 1.140       .   S
C575       C576 1.540       .   A
O225      Cu230 1.951       .   S
O227      Cu230 1.951       .   S
O226      Cu230 1.951       .   S
O131      Cu137 1.951       .   S
O130      Cu137 1.951       .   S
Cu137     Cu138 2.630       .   S
O132      Cu137 1.951       .   S
O133      Cu138 1.951       .   S
O135      Cu138 1.951       .   S
O134      Cu138 1.951       .   S
O136      Cu138 1.951       .   S
C189       N190 1.540       .   A
N190       C191 1.540       .   A
C187       N192 1.540       .   A
C191       N192 1.540       .   A
C370       H374 1.140       .   S
C367       H372 1.140       .   S
C368       H373 1.140       .   S
C365       H371 1.140       .   S
C570       H574 1.140       .   S
C470       H474 1.140       .   S
C465       H471 1.140       .   S
C468       H473 1.140       .   S
C467       H472 1.140       .   S
O40        Cu47 1.951       .   S
O40         C50 1.250       .   A
O41        Cu47 1.951       .   S
O41         C51 1.250       .   A
O42        Cu47 1.951       .   S
O42         C52 1.250       .   A
O43        Cu48 1.951       .   S
O43         C52 1.250       .   A
O44        Cu48 1.951       .   S
O44         C51 1.251       .   A
O45        Cu48 1.951       .   S
O45         C50 1.250       .   A
O46        Cu48 1.951       .   S
O46         C49 1.250       .   A
C368       C369 1.540       .   A
C369        C51 1.608       .   S
C369       C370 1.540       .   A
C609       C610 1.540       .   A
C605       C610 1.540       .   A
C105       N106 1.540       .   A
N106       C107 1.540       .   A
N104       C105 1.540       .   A
C103       N104 1.540       .   A
C615       H621 1.140       .   S
C615       C616 1.540       .   A
C616       C617 1.540       .   A
C617       C618 1.540       .   A
C617       H622 1.140       .   S
C618       H623 1.140       .   S
O174       C177 1.250       .   A
O171       C180 1.250       .   A
O170       C180 1.250       .   A
O173       C178 1.250       .   A
C107       N108 1.540       .   A
C103       N108 1.540       .   A
C11         N12 1.540       .   A
C7          N12 1.540       .   A
C9          N10 1.540       .   A
N10         C11 1.540       .   A
C366       C367 1.540       .   A
C367       C368 1.540       .   A
C13         N14 1.540       .   A
C13         N18 1.540       .   A
N78         C79 1.540       .   A
C79         N80 1.540       .   A
C517       H522 1.140       .   S
C517       C518 1.540       .   A
C645       H651 1.140       .   S
C73         N74 1.540       .   A
C439        C73 1.750   1_556   S
N72         C73 1.540       .   A
C647       H652 1.140       .   S
N74         C75 1.540       .   A
C75        C466 1.623       .   S
C75         N76 1.540       .   A
C366        C77 1.608   1_655   S
C77         N78 1.540       .   A
C77         N82 1.540       .   A
C255       H261 1.140       .   S
Cu97       Cu98 2.630       .   S
O92        Cu97 1.951       .   S
O91        Cu97 1.951       .   S
O90        Cu97 1.951       .   S
C390       H394 1.140       .   S
C385       C390 1.540       .   A
C389       C390 1.540       .   A
O96        Cu98 1.951       .   S
O95        Cu98 1.951       .   S
O94        Cu98 1.951       .   S
O93        Cu98 1.951       .   S
C355       H361 1.140       .   S
C355       C356 1.540       .   A
C355       C360 1.540       .   A
C356       C357 1.540       .   A
C357       C358 1.540       .   A
C357       H362 1.140       .   S
C52        C356 1.608       .   S
C350       H354 1.140       .   S
C260       H264 1.140       .   S
C359       C360 1.540       .   A
C358       C359 1.540       .   A
C358       H363 1.140       .   S
C257       H262 1.140       .   S
C258       H263 1.140       .   S
C679       C680 1.540       .   A
C680       H684 1.140       .   S
C675       C680 1.540       .   A
O39        Cu47 1.951       .   S
O39         C49 1.250       .   A
C486        C81 1.751       .   S
N80         C81 1.540       .   A
C81         N82 1.540       .   A
C83         N84 1.540       .   A
C83         N88 1.540       .   A
C665       C670 1.540       .   A
C535       C540 1.540       .   A
C535       C536 1.540       .   A
C537       C538 1.540       .   A
C536       C537 1.540       .   A
C538       C539 1.540       .   A
C539       C540 1.540       .   A
C539       C105 1.623       .   S
C438       C439 1.540       .   A
C438       H443 1.140       .   S
C437       C438 1.540       .   A
C518       H523 1.140       .   S
O119       C128 1.250       .   A
O118       C128 1.250       .   A
C429       C430 1.540       .   A
C430       H434 1.140       .   S
C425       C430 1.540       .   A
O116       C126 1.250       .   A
C459       C127 1.608       .   S
O117       C127 1.250       .   A
C436        C69 1.750       .   S
C435       C436 1.540       .   A
C436       C437 1.540       .   A
O115       C125 1.250       .   A
C660       H664 1.140       .   S
C305       H311 1.140       .   S
C425       H431 1.140       .   S
C428       H433 1.140       .   S
C458       C459 1.540       .   A
C459       C460 1.540       .   A
C258       C259 1.540       .   A
C257       C258 1.540       .   A
C259       C260 1.540       .   A
C11        C259 1.752       .   S
O96         C99 1.250       .   A
C530       H534 1.140       .   S
O210       C220 1.250       .   A
O211       C220 1.250       .   A
O212       C219 1.251       .   A
O213       C218 1.250       .   A
O214       C217 1.250       .   A
C548       H553 1.140       .   S
C547       C548 1.540       .   A
C548       C549 1.540       .   A
C220       C416 1.623   1_556   S
O131       C141 1.250       .   A
O130       C140 1.250       .   A
O133       C142 1.250       .   A
O132       C142 1.250       .   A
O135       C140 1.250       .   A
O134       C141 1.251       .   A
O136       C139 1.250       .   A
C143       N148 1.540       .   A
C147       N148 1.540       .   A
C145       N146 1.540       .   A
N146       C147 1.540       .   A
C143       N144 1.540       .   A
N144       C145 1.540       .   A
C435       H441 1.140       .   S
C57         N58 1.540       .   A
C53         N58 1.540       .   A
N56         C57 1.540       .   A
C55         N56 1.540       .   A
C320       H324 1.140       .   S
N54         C55 1.540       .   A
C53         N54 1.540       .   A
C266         C9 1.615       .   S
C265       C266 1.540       .   A
C266       C267 1.540       .   A
C315       H321 1.140       .   S
C317       H322 1.140       .   S
C255       C256 1.540       .   A
C256         C5 1.752       .   S
C256       C257 1.540       .   A
C268       C269 1.540       .   A
C268       H273 1.140       .   S
C267       C268 1.540       .   A
C488       C489 1.540       .   A
C489        C85 1.751       .   S
C487       C488 1.540       .   A
C475       C480 1.540       .   A
C480       H484 1.140       .   S
C485       C486 1.540       .   A
C486       C487 1.540       .   A
C319       C320 1.540       .   A
C466       C467 1.540       .   A
C467       C468 1.540       .   A
C649       C189 1.752       .   S
C648       C649 1.540       .   A
C647       C648 1.540       .   A
C646       C647 1.540       .   A
C646       C185 1.752       .   S
C645       C646 1.540       .   A
C315       C320 1.540       .   A
C635       C640 1.540       .   A
C639       C640 1.540       .   A
C630       H634 1.140       .   S
N22         C23 1.540       .   A
C19         N20 1.540       .   A
C23         N24 1.540       .   A
C19         N24 1.540       .   A
C299        C23 1.752       .   S
C577       H582 1.140       .   S
C580       H584 1.140       .   S
C298       H303 1.140       .   S
C255       C260 1.540       .   A
C165       C636 1.623       .   S
C163       C609 1.751       .   S
C217       C469 1.623   1_456   S
C469       C470 1.540       .   A
C468       C469 1.540       .   A
C365       C366 1.540       .   A
C365       C370 1.540       .   A
C360       H364 1.140       .   S
C185       N186 1.540       .   A
N184       C185 1.540       .   A
C187       C676 1.610       .   S
C187       N188 1.540       .   A
C181       N186 1.540       .   A
C181       N182 1.540       .   A
C336       C181 1.609   1_565   S
C183       N184 1.540       .   A
N182       C183 1.540       .   A
N188       C189 1.540       .   A
C265       H271 1.140       .   S
C267       H272 1.140       .   S
C465       C466 1.540       .   A
Cu47       Cu48 2.630       .   S
C508       C509 1.540       .   A
C507       C508 1.540       .   A
C465       C470 1.540       .   A
C455       C460 1.540       .   A
C505       C506 1.540       .   A
C506        C87 1.623       .   S
C506       C507 1.540       .   A
Cu123     Cu124 2.630       .   S
O118      Cu123 1.951       .   S
O117      Cu123 1.951       .   S
O116      Cu123 1.951       .   S
O115      Cu123 1.951       .   S
O119      Cu124 1.951       .   S
C405       H411 1.140       .   S
C405       C410 1.540       .   A
C558       H563 1.140       .   S
C557       H562 1.140       .   S
C555       H561 1.140       .   S
C307       H312 1.140       .   S
O207       C217 1.250       .   A
C437       H442 1.140       .   S
O208       C218 1.250       .   A
O209       C219 1.250       .   A
C599       C600 1.540       .   A
C600       H604 1.140       .   S
C607       C608 1.540       .   A
C606       C607 1.540       .   A
C605       C606 1.540       .   A
C608       C609 1.540       .   A
C178       C599 1.616       .   S
N66         C67 1.540       .   A
C65         N66 1.540       .   A
C63         N64 1.540       .   A
C59         N64 1.540       .   A
N62         C63 1.540       .   A
C61         N62 1.540       .   A
C59         N60 1.540       .   A
N60         C61 1.540       .   A
C67         N68 1.540       .   A
N68         C69 1.540       .   A
N8           C9 1.540       .   A
N2           C3 1.540       .   A
C3           N4 1.540       .   A
C1           N2 1.540       .   A
C1           N6 1.540       .   A
C7           N8 1.540       .   A
N4           C5 1.540       .   A
C5           N6 1.540       .   A
C69         N70 1.540       .   A
C426        C67 1.623       .   S
C446        C65 1.607       .   S
C65         N70 1.540       .   A
C389        C63 1.751   1_556   S
C419        C61 1.623       .   S
C325       C330 1.540       .   A
C325       C326 1.540       .   A
C19        C326 1.616       .   S
C326       C327 1.540       .   A
C327       C328 1.540       .   A
C328       C329 1.540       .   A
C329       C330 1.540       .   A
C177       C329 1.616   1_565   S
C427       H432 1.140       .   S
C289        C13 1.615       .   S
C289       C290 1.540       .   A
Cu33       Cu34 2.630       .   S
O31        Cu34 1.951       .   S
O30        Cu34 1.951       .   S
O32        Cu34 1.951       .   S
C139       C429 1.623   1_554   S
C428       C429 1.540       .   A
C427       C428 1.540       .   A
C415       C420 1.540       .   A
C419       C420 1.540       .   A
C426       C427 1.540       .   A
C425       C426 1.540       .   A
C677       H682 1.140       .   S
C678       H683 1.140       .   S
C675       H681 1.140       .   S
N84         C85 1.540       .   A
C85         N86 1.540       .   A
N86         C87 1.540       .   A
C87         N88 1.540       .   A
C556       C557 1.540       .   A
C557       C558 1.540       .   A
C555       C556 1.540       .   A
O200      Cu202 1.951       .   S
O200       C203 1.250       .   A
C545       C550 1.540       .   A
C549       C550 1.540       .   A
C550       H554 1.140       .   S
C559       C140 1.623   1_565   S
C558       C559 1.540       .   A
C545       C546 1.540       .   A
C545       H551 1.140       .   S
C546       C547 1.540       .   A
C107       C546 1.751       .   S
C547       H552 1.140       .   S
C678       C679 1.540       .   A
C677       C678 1.540       .   A
C205       C679 1.610       .   S
C670       H674 1.140       .   S
C676       C677 1.540       .   A
C675       C676 1.540       .   A
C386        C55 1.751       .   S
Cu201     Cu202 2.630       .   S
C585       C586 1.540       .   A
C586       C143 1.616       .   S
C586       C587 1.540       .   A
C587       C588 1.540       .   A
C588       C589 1.540       .   A
C589       C203 1.616       .   S
C280       H284 1.140       .   S
C475       H481 1.140       .   S
C379       C142 1.623   1_566   S
C379       C380 1.540       .   A
C378       C379 1.540       .   A
C377       C378 1.540       .   A
C375       C380 1.540       .   A
C478       H483 1.140       .   S
C576       C577 1.540       .   A
C415       C416 1.540       .   A
C576       C147 1.752       .   S
C298       C299 1.540       .   A
C407       H412 1.140       .   S
C518       C519 1.540       .   A
C519       C145 1.616   1_554   S
C455       C456 1.540       .   A
O95        C100 1.250       .   A
O90        C100 1.250       .   A
O94        C101 1.251       .   A
O91        C101 1.250       .   A
O93        C102 1.250       .   A
O92        C102 1.250       .   A
C385       H391 1.140       .   S
C387       H392 1.140       .   S
C388       H393 1.140       .   S
C410       H414 1.140       .   S
C416       C417 1.540       .   A
C417       C418 1.540       .   A
C637       C638 1.540       .   A
C638       C639 1.540       .   A
C636       C637 1.540       .   A
C635       C636 1.540       .   A
C337       C338 1.540       .   A
C336       C337 1.540       .   A
C335       C336 1.540       .   A
C149       N150 1.540       .   A
C338       C339 1.540       .   A
C149       N154 1.540       .   A
C418       C419 1.540       .   A
C386       C387 1.540       .   A
C385       C386 1.540       .   A
C387       C388 1.540       .   A
C388       C389 1.540       .   A
