data_hwx_v1-6c_Zn_1_Ch_v2-3c_B_Ch_1B_4H_Ch
_audit_creation_date              2020-02-03
_audit_creation_method            'tobacco_3.0'
_symmetry_space_group_name_H-M    'P1'
_symmetry_Int_Tables_number       1
_symmetry_cell_setting            triclinic
loop_
_symmetry_equiv_pos_as_xyz
  x,y,z
_cell_length_a                    37.284108511705575
_cell_length_b                    37.28396001787717
_cell_length_c                    15.838704226631478
_cell_angle_alpha                 90.1210473084505
_cell_angle_beta                  89.87899971517405
_cell_angle_gamma                 89.99829217800449
loop_
_atom_site_label
_atom_site_type_symbol
_atom_site_fract_x
_atom_site_fract_y
_atom_site_fract_z
C1         C    0.5087636335    0.2457071215   -0.0043096824
C2         C    0.5309254654    0.2480255054   -0.0862710453
C3         C    0.5719618319    0.2523183839   -0.0819613630
C4         C    0.5908363665    0.2542928785    0.0043096824
C5         C    0.5686745346    0.2519744946    0.0862710453
C6         C    0.5276381681    0.2476816161    0.0819613630
H7         H    0.5169536409    0.2465638910   -0.1501459865
H8         H    0.6212139365    0.2574707236    0.0074999667
H9         H    0.5112324226    0.2459653854    0.1426460198
Zn10      Zn    0.7677150471    0.2462838938    0.4811737919
Zn11      Zn    0.7340413472    0.2758855390    0.3113420046
Zn12      Zn    0.7076834409    0.3064867380    0.4878349595
Zn13      Zn    0.7855574363    0.3252756729    0.4202546959
O14        O    0.7487493179    0.2884829609    0.4251513630
O15        O    0.7668129675    0.2043789141    0.4103355763
O16        O    0.6839022803    0.2844628467    0.2919754564
O17        O    0.6971566733    0.2782722658    0.5862302419
O18        O    0.7420652608    0.2261339584    0.2855216334
O19        O    0.7412755134    0.2340275784    0.5813347709
O20        O    0.6645311469    0.3069524899    0.4216848703
O21        O    0.7716753672    0.3686137321    0.4775408454
O22        O    0.7593522635    0.3026669317    0.2264987882
O23        O    0.7144436760    0.3548052391    0.5272073966
O24        O    0.7972128213    0.3389650679    0.3065416509
O25        O    0.8298383477    0.3102848438    0.4710870224
O26        O    0.8167254966    0.2522316634    0.5158581027
C27        C    0.7555521618    0.2009317387    0.3328221573
C28        C    0.6596365185    0.2971209779    0.3434650538
C29        C    0.7134387537    0.2498248779    0.6148142010
C30        C    0.7419464739    0.3760341832    0.5174805686
C31        C    0.7840598821    0.3271410439    0.2354885249
C32        C    0.8378621172    0.2798449440    0.5068376721
C33        C    0.7911614601    0.5284929395    0.9204070176
C34        C    0.7891170120    0.5096160208    1.0066665378
C35        C    0.7846742608    0.4685949466    1.0109512598
C36        C    0.7822759576    0.4464507910    0.9289764616
C37        C    0.7843204056    0.4653277096    0.8427169414
C38        C    0.7887631568    0.5063487838    0.8384322194
H39        H    0.7908924045    0.5260086800    1.0673611403
H40        H    0.7789871677    0.4160845412    0.9321482688
H41        H    0.7902765542    0.5203223744    0.7745658097
C42        C    0.7585359554    1.0285720200    0.3772846414
C43        C    0.7609405196    1.0065075863    0.4591579547
C44        C    0.7654111257    0.9654850212    0.4546848134
C45        C    0.7674771675    0.9465268898    0.3683383587
C46        C    0.7650726033    0.9685913235    0.2864650453
C47        C    0.7606019973    1.0096138887    0.2909381867
H48        H    0.7594111360    1.0205413069    0.5230887175
H49        H    0.7707865772    0.9161595364    0.3650270722
H50        H    0.7588219711    1.0259475215    0.2303187104
Zn51      Zn    0.7610193406    0.7719322989    0.8915260804
Zn52      Zn    0.7902073217    0.8029041077    0.7181807512
Zn53      Zn    0.8211475720    0.8320896820    0.8915597971
Zn54      Zn    0.8399042512    0.7532195419    0.8304907950
O55        O    0.8030696214    0.7900364076    0.8329393559
O56        O    0.7189624438    0.7716577987    0.8215729159
O57        O    0.7986700732    0.8527046554    0.6942094438
O58        O    0.7931294583    0.8441461799    0.9895799085
O59        O    0.7404134752    0.7944198130    0.6941767767
O60        O    0.7489396057    0.7999349030    0.9895551292
O61        O    0.8214088944    0.8741539179    0.8216303623
O62        O    0.8833436769    0.7680521170    0.8855632405
O63        O    0.8168429064    0.7762895348    0.6350413588
O64        O    0.8695588895    0.8260159017    0.9304444906
O65        O    0.8533665150    0.7397750127    0.7175810271
O66        O    0.8250870789    0.7097672746    0.8855305733
O67        O    0.7671124389    0.7235197824    0.9303870442
C68        C    0.7153329137    0.7816699230    0.7431905989
C69        C    0.8114029402    0.8777865268    0.7432444698
C70        C    0.7647677732    0.8283012447    1.0202073871
C71        C    0.8908063290    0.7984028921    0.9226881129
C72        C    0.8413714695    0.7517715705    0.6456713248
C73        C    0.7947363025    0.7022862884    0.9226342420
C74        C    0.0417074537    0.7455600710    0.2885890496
C75        C    0.0227486467    0.7476402311    0.3749327516
C76        C   -0.0182705877    0.7521408610    0.3793999104
C77        C   -0.0403310151    0.7545613308    0.2975233673
C78        C   -0.0213722080    0.7524811707    0.2111796653
C79        C    0.0196470264    0.7479805408    0.2067125065
H80        H    0.0390793134    0.7458484305    0.4355546189
H81        H   -0.0706959029    0.7578929660    0.3008302251
H82        H    0.0336812475    0.7464407062    0.1427837813
C83        C    0.2904534264   -0.0022531276    0.2109827820
C84        C    0.2885492823    0.0167264609    0.2973230297
C85        C    0.2844299478    0.0577859974    0.3017826897
C86        C    0.2822147574    0.0798659455    0.2199021020
C87        C    0.2841189015    0.0608863570    0.1335618543
C88        C    0.2882382360    0.0198268205    0.1291021943
H89        H    0.2901891207    0.0003813439    0.3579478910
H90        H    0.2791653800    0.1102606674    0.2232034088
H91        H    0.2896477751    0.0057772156    0.0651760261
Zn92      Zn    0.2661913937    0.2225295018    0.9462025410
Zn93      Zn    0.2936315181    0.2552463047    0.7730689880
Zn94      Zn    0.2335230316    0.1950691925    0.7730356274
Zn95      Zn    0.2153746044    0.2732993286    0.8394835714
O96        O    0.2521801369    0.2365360819    0.8329476820
O97        O    0.3162136181    0.2307995006    0.9678964261
O98        O    0.3047286205    0.2282384157    0.6728792428
O99        O    0.2339672934    0.1523142243    0.8405990873
O100       O    0.3363801027    0.2548439580    0.8406559269
O101       O    0.2579761503    0.1724955433    0.9678641040
O102       O    0.2605532791    0.1840126394    0.6728547253
O103       O    0.1713945302    0.2589971488    0.7860363769
O104       O    0.2871451061    0.3040334539    0.7372588375
O105       O    0.1847322968    0.2015037202    0.7372019978
O106       O    0.2296319980    0.3173011061    0.7860686990
O107       O    0.2030460123    0.2856026911    0.9538130610
O108       O    0.2403926359    0.2482905815    1.0322436987
C109       C    0.3407957002    0.2440513384    0.9182295782
C110       C    0.2885997459    0.2001765631    0.6415517250
C111       C    0.2447572211    0.1479032125    0.9181762764
C112       C    0.1635645737    0.2290208255    0.7476657857
C113       C    0.2596030528    0.3251689513    0.7477190876
C114       C    0.2157605280    0.2728956008    1.0243436389
C115       C    0.0126411697    0.2755330236    0.4548837881
C116       C    0.0347104371    0.2732557900    0.5367705461
C117       C    0.0757582115    0.2690202453    0.5323223170
C118       C    0.0947367185    0.2670619341    0.4459873299
C119       C    0.0726674510    0.2693391677    0.3641005719
C120       C    0.0316196766    0.2735747124    0.3685488010
H121       H    0.0206616322    0.2747054263    0.6006928201
H122       H    0.1251227333    0.2639265308    0.4426944849
H123       H    0.0152824667    0.2752604794    0.3079193720
C124       C    0.2603633386    0.4947467657    0.6701681379
C125       C    0.2625988179    0.5169138908    0.7521349574
C126       C    0.2667388150    0.5579663113    0.7478354075
C127       C    0.2686433329    0.5768516066    0.6615690380
C128       C    0.2664078536    0.5546844815    0.5796022185
C129       C    0.2622678565    0.5136320611    0.5839017684
H130       H    0.2611890035    0.5029341003    0.8160064373
H131       H    0.2717080061    0.6072410608    0.6583862543
H132       H    0.2606129977    0.4972223975    0.5232130722
Zn133     Zn    0.2898222673    0.7205849263    0.3545590193
Zn134     Zn    0.2602985650    0.7541746352    0.1845594522
Zn135     Zn    0.3392572104    0.7720583126    0.2456468152
Zn136     Zn    0.3205136480    0.6941496578    0.1782164571
O137       O    0.3024729227    0.7352418830    0.2407454360
O138       O    0.2400571613    0.7286127930    0.3802239002
O139       O    0.2662555630    0.8031699279    0.1497645972
O140       O    0.3528890998    0.7837689732    0.3593672700
O141       O    0.2183593993    0.7532987724    0.2552866515
O142       O    0.3165580321    0.7459397988    0.4394097746
O143       O    0.3242843926    0.8163131229    0.1946593413
O144       O    0.3688499913    0.7008994016    0.1389574053
O145       O    0.2480954383    0.7276863642    0.0844331684
O146       O    0.3826251388    0.7581565649    0.1885137869
O147       O    0.2923491204    0.6835723958    0.0797715308
O148       O    0.3209538276    0.6510282461    0.2444794595
O149       O    0.2983979075    0.6704562350    0.3740783457
C150       C    0.2148761261    0.7420735455    0.3328200720
C151       C    0.2938609254    0.8243152725    0.1588053357
C152       C    0.3410324918    0.7706472343    0.4304225533
C153       C    0.3900697193    0.7284102204    0.1486707999
C154       C    0.2639133535    0.6998365317    0.0510683186
C155       C    0.3110849199    0.6461684935    0.3226855362
C156       C    0.5420650713    0.7781027379    0.7455314691
C157       C    0.5199225602    0.7756790536    0.8275042769
C158       C    0.4789068071    0.7711895340    0.8232158578
C159       C    0.4600335652    0.7691236987    0.7369546310
C160       C    0.4821760763    0.7715473831    0.6549818232
C161       C    0.5231918294    0.7760369027    0.6592702422
H162       H    0.5338934289    0.7772082828    0.8913719500
H163       H    0.4296712544    0.7658002881    0.7337800870
H164       H    0.5395832714    0.7778310840    0.5985771131
C395       C    0.4486668202    0.7745800442    0.5004064581
C396       C    0.4457922101    0.7713153435    0.5970951366
C397       C    0.4087296739    0.7678326080    0.6393908667
C398       C    0.3745417479    0.7676145732    0.5849979183
C399       C    0.3774163581    0.7708792738    0.4883092398
C400       C    0.4144788942    0.7743620093    0.4460135097
H401       H    0.4761027236    0.7771581731    0.4690966319
H402       H    0.4066007248    0.7654159779    0.7109608214
H403       H    0.3471058445    0.7650364443    0.6163077445
H404       H    0.4166078434    0.7767786394    0.3744435550
C385       C    0.4538817905    0.7437102051    0.0704579679
C386       C    0.4128699497    0.7393896237    0.0651420861
C387       C    0.3934764224    0.7454792958   -0.0193725529
C388       C    0.4150947358    0.7558895494   -0.0985713101
C389       C    0.4561065766    0.7602101308   -0.0932554283
C390       C    0.4755001039    0.7541204586   -0.0087407893
H391       H    0.4682380380    0.7392022660    0.1330207526
H392       H    0.3631189899    0.7422814095   -0.0233100244
H393       H    0.4007384883    0.7603974885   -0.1611340948
H394       H    0.5058575365    0.7573183449   -0.0048033179
C375       C    0.2823057965    0.5604035702    0.4323303917
C376       C    0.2763884800    0.5751215384    0.5222083555
C377       C    0.2828290703    0.6151444557    0.5410218412
C378       C    0.2951869771    0.6404494048    0.4699573630
C379       C    0.3011042935    0.6257314366    0.3800793991
C380       C    0.2946637032    0.5857085193    0.3612659135
H381       H    0.2775380868    0.5307762159    0.4184035257
H382       H    0.2784492975    0.6260399100    0.6075497860
H383       H    0.2999546868    0.6700767592    0.4838842289
H384       H    0.2990434760    0.5748130650    0.2947379687
C365       C    0.2342742039    0.6248075342    0.8361995407
C366       C    0.2659356980    0.5982918946    0.8340271678
C367       C    0.2969875784    0.6023857820    0.8972794902
C368       C    0.2963779646    0.6329953088    0.9627041854
C369       C    0.2647164705    0.6595109483    0.9648765583
C370       C    0.2336645901    0.6554170610    0.9016242359
H371       H    0.2112877470    0.6217769942    0.7893763929
H372       H    0.3204242866    0.5827591294    0.8956735093
H373       H    0.3193644215    0.6360258488    1.0095273332
H374       H    0.2102278820    0.6750437136    0.9032302168
C355       C    0.1374982303    0.2915163901    1.1113024634
C356       C    0.1733202919    0.2718407918    1.1251127660
C357       C    0.1800360510    0.2514417859    1.2080324080
C358       C    0.1509297487    0.2507183783    1.2771417474
C359       C    0.1151076871    0.2703939766    1.2633314448
C360       C    0.1083919279    0.2907929825    1.1804118028
H361       H    0.1325268242    0.3066169530    1.0499203907
H362       H    0.2065516262    0.2368773323    1.2182573690
H363       H    0.1559011548    0.2356178155    1.3385238201
H364       H    0.0818763528    0.3053574361    1.1701868418
C345       C    0.1436477075    0.2767062334    0.6849350530
C346       C    0.1469010454    0.2366117500    0.7067987927
C347       C    0.1229147305    0.2089260520    0.6618577910
C348       C    0.0956750777    0.2213348374    0.5950530497
C349       C    0.0924217399    0.2614293208    0.5731893100
C350       C    0.1164080548    0.2891150188    0.6181303117
H351       H    0.1614038108    0.2972008410    0.7182030672
H352       H    0.1253220805    0.1792473817    0.6780398312
H353       H    0.0779189745    0.2008402298    0.5617850355
H354       H    0.1140007047    0.3187936891    0.6019482715
C335       C    0.2528022664    0.3964800903    0.7992526105
C336       C    0.2598014803    0.3694271887    0.7274790087
C337       C    0.2669824096    0.3829049569    0.6371700109
C338       C    0.2671641250    0.4234356267    0.6186346149
C339       C    0.2601649111    0.4504885284    0.6904082167
C340       C    0.2529839818    0.4370107602    0.7807172146
H341       H    0.2474865136    0.3865030411    0.8661047258
H342       H    0.2721634301    0.3628809217    0.5840405878
H343       H    0.2724798778    0.4334126759    0.5517824996
H344       H    0.2478029613    0.4570347953    0.8338466376
C325       C    0.3077881036   -0.1131971789    0.2543181454
C326       C    0.2929622362   -0.1299441090    0.1725665457
C327       C    0.2773313084   -0.1057158577    0.1031424591
C328       C    0.2765262481   -0.0647406762    0.1154699723
C329       C    0.2913521156   -0.0479937461    0.1972215720
C330       C    0.3069830434   -0.0722219975    0.2666456585
H331       H    0.3193590502   -0.1311323780    0.3057100016
H332       H    0.2663567593   -0.1181111090    0.0426280185
H333       H    0.2649553016   -0.0468054771    0.0640781160
H334       H    0.3179575925   -0.0598267461    0.3271600991
C315       C    0.2880555641    0.1168693074    0.0999789607
C316       C    0.2767135509    0.0772573634    0.0930400651
C317       C    0.2530960481    0.0647828408    0.0189301697
C318       C    0.2408205585    0.0919202622   -0.0482408301
C319       C    0.2521625717    0.1315322061   -0.0413019345
C320       C    0.2757800745    0.1440067287    0.0328079609
H321       H    0.3055386506    0.1261036942    0.1548395326
H322       H    0.2446999828    0.0354618259    0.0137916785
H323       H    0.2233374720    0.0826858753   -0.1031014020
H324       H    0.2841761398    0.1733277436    0.0379464521
C305       C    0.2711948417    0.1378102271    0.3839164606
C306       C    0.2856646764    0.0999495983    0.4023924874
C307       C    0.3009846816    0.0911206515    0.4901432342
C308       C    0.3018348520    0.1201523334    0.5594179542
C309       C    0.2873650173    0.1580129622    0.5409419274
C310       C    0.2720450122    0.1668419090    0.4531911806
H311       H    0.2598540587    0.1443459409    0.3189581155
H312       H    0.3116956866    0.0630960693    0.5038219006
H313       H    0.3131756351    0.1136166196    0.6243762992
H314       H    0.2613340071    0.1948664912    0.4395125142
C295       C    0.1105243630    0.7231045692    0.2377025441
C296       C    0.0872455484    0.7446432208    0.3002204634
C297       C    0.1050129754    0.7653554598    0.3732224801
C298       C    0.1460592169    0.7645290473    0.3837065775
C299       C    0.1693380314    0.7429903957    0.3211886582
C300       C    0.1515706044    0.7222781567    0.2481866415
H301       H    0.0973718521    0.7077721325    0.1836620903
H302       H    0.0877826419    0.7812989487    0.4195003320
H303       H    0.1592117277    0.7798614840    0.4377470313
H304       H    0.1688009379    0.7063346678    0.2019087896
C285       C    0.6498193447    0.7629484712    0.8176044443
C286       C    0.6699949724    0.7807365194    0.7438031202
C287       C    0.6488746202    0.7976743788    0.6705597099
C288       C    0.6075786403    0.7968241898    0.6711176237
C289       C    0.5874030126    0.7790361415    0.7449189478
C290       C    0.6085233648    0.7620982822    0.8181623581
H291       H    0.6654538911    0.7504100558    0.8718235922
H292       H    0.6638078797    0.8108415649    0.6159299141
H293       H    0.5919440939    0.8093626052    0.6168984759
H294       H    0.5935901053    0.7489310961    0.8727921539
C275       C    0.9704980412    0.7944382438    1.0858124957
C276       C    0.9577005526    0.7634239952    1.1424341495
C277       C    0.9219195720    0.7444277829    1.1235555429
C278       C    0.8989360798    0.7564458191    1.0480552825
C279       C    0.9117335684    0.7874600677    0.9914336287
C280       C    0.9475145490    0.8064562800    1.0103122353
H281       H    0.9969852606    0.8085003750    1.0997875681
H282       H    0.9124457841    0.7214705451    1.1654660923
H283       H    0.8724488604    0.7423836879    1.0340802101
H284       H    0.9569883369    0.8294135178    0.9684016859
C265       C    0.8797763716    0.7775401055    0.4975652367
C266       C    0.8793564534    0.7518715114    0.5736104554
C267       C    0.9111305227    0.7262876217    0.5885808362
C268       C    0.9433245101    0.7263723261    0.5275059985
C269       C    0.9437444284    0.7520409202    0.4514607798
C270       C    0.9119703591    0.7776248098    0.4364903990
H271       H    0.8562553074    0.7964788290    0.4864832664
H272       H    0.9108207062    0.7072870099    0.6448697106
H273       H    0.9668455744    0.7074336025    0.5385879688
H274       H    0.9122801756    0.7966254216    0.3802015246
C255       C    0.7485041151    0.8624467158    0.1811490734
C256       C    0.7648502470    0.8662576425    0.0922451368
C257       C    0.7812663202    0.9022572107    0.0644322796
C258       C    0.7813362615    0.9344458524    0.1255233590
C259       C    0.7649901296    0.9306349257    0.2144272956
C260       C    0.7485740563    0.8946353575    0.2422401528
H261       H    0.7363519570    0.8357976848    0.2017378118
H262       H    0.7933661885    0.9050791844   -0.0013749785
H263       H    0.7934884196    0.9610948834    0.1049346206
H264       H    0.7364741881    0.8918133838    0.3080474109
C245       C    0.7985503623    0.9103104100    0.5084538268
C246       C    0.7763686964    0.9445908150    0.5234342829
C247       C    0.7662253670    0.9559161790    0.6139450977
C248       C    0.7782637036    0.9329611380    0.6894754564
C249       C    0.8004453695    0.8986807330    0.6744950003
C250       C    0.8105886988    0.8873553690    0.5839841855
H251       H    0.8060590607    0.9019266989    0.4414523146
H252       H    0.7498062558    0.9812907714    0.6250364424
H253       H    0.7707550052    0.9413448490    0.7564769686
H254       H    0.8270078101    0.8619807766    0.5728928408
C235       C    0.7888782928    0.5946970217    1.0050394790
C236       C    0.7920994390    0.5740934111    0.9209914041
C237       C    0.7961700275    0.5947860034    0.8374725548
C238       C    0.7970194698    0.6360822062    0.8380017806
C239       C    0.7937983236    0.6566858167    0.9220498555
C240       C    0.7897277350    0.6359932245    1.0055687047
H241       H    0.7858649999    0.5793791287    1.0668651207
H242       H    0.7985544374    0.5795359390    0.7752578253
H243       H    0.8000327626    0.6514000992    0.7761761389
H244       H    0.7873433252    0.6512432889    1.0677834342
C225       C    0.9004108457    0.2628562614    0.4115191641
C226       C    0.8842733561    0.2786999466    0.4930417161
C227       C    0.9091141539    0.2935326690    0.5623832821
C228       C    0.9500924413    0.2925217062    0.5502022961
C229       C    0.9662299308    0.2766780211    0.4686797442
C230       C    0.9413891330    0.2618452987    0.3993381782
H231       H    0.8820222031    0.2518761942    0.3601883945
H232       H    0.8971700277    0.3052605778    0.6227281797
H233       H    0.9684810838    0.3035017734    0.6015330657
H234       H    0.9533332592    0.2501173898    0.3389932805
C215       C    0.7816070175    0.3845483923    0.6617019129
C216       C    0.7528255116    0.3989593073    0.6009814057
C217       C    0.7343519339    0.4350918613    0.6193782478
C218       C    0.7446598620    0.4568135005    0.6984955971
C219       C    0.7734413679    0.4424025855    0.7592161043
C220       C    0.7919149457    0.4062700314    0.7408192623
H221       H    0.7952822634    0.3578009172    0.6480834714
H222       H    0.7130473808    0.4457599129    0.5744337263
H223       H    0.7309846161    0.4835609756    0.7121140386
H224       H    0.8132194987    0.3956019799    0.7857637837
C205       C    0.7606649606    0.3958807268    0.2028187003
C206       C    0.7842184746    0.3636552073    0.1775276611
C207       C    0.8079205854    0.3656424758    0.0979288531
C208       C    0.8080691823    0.3998552637    0.0436210843
C209       C    0.7845156683    0.4320807832    0.0689121236
C210       C    0.7608135575    0.4300935148    0.1485109316
H211       H    0.7431192422    0.3944096320    0.2617424932
H212       H    0.8253555628    0.3417893237    0.0792059966
H213       H    0.8256149006    0.4013263585   -0.0153027086
H214       H    0.7433785801    0.4539466669    0.1672337880
C195       C    0.7923396926    0.1355636503    0.3427254346
C196       C    0.7563335334    0.1557955770    0.3444656311
C197       C    0.7210378994    0.1349838061    0.3567935959
C198       C    0.7217484246    0.0939401085    0.3673813641
C199       C    0.7577545838    0.0737081817    0.3656411676
C200       C    0.7930502178    0.0945199526    0.3533132028
H201       H    0.8184676294    0.1509697664    0.3335995386
H202       H    0.6943851514    0.1499587478    0.3580820733
H203       H    0.6956204878    0.0785339924    0.3765072601
H204       H    0.8197029658    0.0795450110    0.3520247254
C185       C    0.5732261392    0.2777475900    0.2257770367
C186       C    0.5889793005    0.2620522077    0.1436825475
C187       C    0.6299086879    0.2588523539    0.1327735604
C188       C    0.6550849139    0.2713478824    0.2039590625
C189       C    0.6393317526    0.2870432648    0.2860535517
C190       C    0.5984023652    0.2902431186    0.2969625388
H191       H    0.5429277615    0.2801163130    0.2338525206
H192       H    0.6415704173    0.2472345864    0.0720071660
H193       H    0.6853832916    0.2689791595    0.1958835785
H194       H    0.5867406359    0.3018608861    0.3577289331
C175       C    0.6512724996    0.2472939931   -0.1389383151
C176       C    0.6121282290    0.2516104582   -0.1680491358
C177       C    0.6035560221    0.2553880960   -0.2626844017
C178       C    0.6341280859    0.2548492687   -0.3282088468
C179       C    0.6732723565    0.2505328037   -0.2990980261
C180       C    0.6818445634    0.2467551659   -0.2044627602
H181       H    0.6576181592    0.2444975600   -0.0688836378
H182       H    0.5745813009    0.2585832476   -0.2842351227
H183       H    0.6277824263    0.2576457019   -0.3982635241
H184       H    0.7108192846    0.2435600142   -0.1829120393
C165       C    0.4506290201    0.2649231385   -0.1024380771
C166       C    0.4652961981    0.2452786311   -0.0243552924
C167       C    0.4394468448    0.2252347225    0.0350427327
C168       C    0.3989303135    0.2248353214    0.0163579730
C169       C    0.3842631356    0.2444798288   -0.0617248118
C170       C    0.4101124888    0.2645237373   -0.1211228368
H171       H    0.4697642557    0.2797608370   -0.1464080437
H172       H    0.4503026198    0.2106932937    0.0928412122
H173       H    0.3797950780    0.2099976228    0.0603279395
H174       H    0.3992567139    0.2790651662   -0.1789213163
loop_
_geom_bond_atom_site_label_1
_geom_bond_atom_site_label_2
_geom_bond_distance
_geom_bond_site_symmetry_2
_ccdc_geom_bond_type
C175       H181 1.140       .   S
C175       C180 1.540       .   A
C175       C176 1.540       .   A
C177       C178 1.540       .   A
C177       H182 1.140       .   S
C176       C177 1.540       .   A
C255       H261 1.140       .   S
O26         C32 1.304       .   A
Zn10        O26 1.922       .   S
O24         C31 1.304       .   A
Zn13        O24 1.922       .   S
Zn13        O25 1.922       .   S
O25         C32 1.304       .   A
O22         C31 1.304       .   A
Zn11        O22 1.922       .   S
Zn12        O23 1.922       .   S
O23         C30 1.304       .   A
O20         C28 1.304       .   A
Zn12        O20 1.922       .   S
Zn13        O21 1.922       .   S
O21         C30 1.304       .   A
C249       C250 1.540       .   A
C248       C249 1.540       .   A
C249        C69 1.402       .   S
C247       C248 1.540       .   A
C248       H253 1.140       .   S
Zn95        O96 1.942       .   S
Zn95       O103 1.922       .   S
Zn95       O106 1.922       .   S
Zn95       O107 1.922       .   S
Zn94        O96 1.942       .   S
Zn94       O102 1.922       .   S
Zn94       O105 1.922       .   S
Zn94        O99 1.922       .   S
Zn93       O100 1.922       .   S
Zn93        O96 1.942       .   S
Zn93       O104 1.922       .   S
Zn93        O98 1.922       .   S
Zn92        O97 1.922       .   S
Zn92        O96 1.942       .   S
Zn92       O108 1.922       .   S
Zn92       O101 1.922       .   S
C245       C250 1.540       .   A
C245       H251 1.140       .   S
C245       C246 1.540       .   A
C215       H221 1.140       .   S
C338       H343 1.140       .   S
C337       H342 1.140       .   S
C335       H341 1.140       .   S
C217       H222 1.140       .   S
C340       H344 1.140       .   S
Zn52        O59 1.922       .   S
O59         C68 1.304       .   A
Zn53        O58 1.922       .   S
O58         C70 1.304       .   A
C220       H224 1.140       .   S
Zn52        O57 1.922       .   S
O57         C69 1.304       .   A
Zn51        O56 1.922       .   S
O56         C68 1.304       .   A
Zn53        O55 1.942       .   S
Zn52        O55 1.942       .   S
Zn51        O55 1.942       .   S
Zn54        O55 1.942       .   S
C200       H204 1.140       .   S
C197       H202 1.140       .   S
C198       H203 1.140       .   S
C195       H201 1.140       .   S
C44         C45 1.540       .   A
C246        C44 1.402       .   S
C43         C44 1.540       .   A
C45         C46 1.540       .   A
C45         H49 1.140       .   S
C46         C47 1.540       .   A
C259        C46 1.816       .   S
C47         H50 1.140       .   S
C42         C47 1.540       .   A
C199        C42 1.694   1_545   S
C42         C43 1.540       .   A
C43         H48 1.140       .   S
C197       C198 1.540       .   A
C198       C199 1.540       .   A
C285       H291 1.140       .   S
C288       H293 1.140       .   S
C287       H292 1.140       .   S
C290       H294 1.140       .   S
C348       H353 1.140       .   S
C348       C349 1.540       .   A
C347       C348 1.540       .   A
C349       C117 0.942       .   S
C349       C350 1.540       .   A
C339       C340 1.540       .   A
C335       C340 1.540       .   A
C112       C346 0.942       .   S
C346       C347 1.540       .   A
C345       C346 1.540       .   A
C347       H352 1.140       .   S
C345       H351 1.140       .   S
C345       C350 1.540       .   A
C289       C290 1.540       .   A
C289       C156 1.691       .   S
C288       C289 1.540       .   A
C287       C288 1.540       .   A
C286       C287 1.540       .   A
C285       C286 1.540       .   A
C68        C286 1.691       .   S
C285       C290 1.540       .   A
C280       H284 1.140       .   S
C275       C280 1.540       .   A
C279       C280 1.540       .   A
C119       C120 1.540       .   A
C119       C359 2.246   1_554   S
C118       C119 1.540       .   A
C117       C118 1.540       .   A
C118       H122 1.140       .   S
C116       C117 1.540       .   A
C115       C116 1.540       .   A
C116       H121 1.140       .   S
C115       C120 1.540       .   A
C115       C229 1.744   1_455   S
O108       C114 1.304       .   A
C114       C356 2.246       .   S
O107       C114 1.304       .   A
O104       C113 1.304       .   A
C113       C336 1.682       .   S
O106       C113 1.304       .   A
O103       C112 1.304       .   A
O105       C112 1.304       .   A
C111       C319 0.929   1_556   S
O101       C111 1.304       .   A
O99        C111 1.304       .   A
O102       C110 1.304       .   A
C110       C309 2.237       .   S
O98        C110 1.304       .   A
C380       H384 1.140       .   S
C378       H383 1.140       .   S
C377       H382 1.140       .   S
C375       H381 1.140       .   S
O17         C29 1.304       .   A
Zn12        O17 1.922       .   S
O16         C28 1.304       .   A
Zn11        O16 1.922       .   S
O15         C27 1.304       .   A
Zn10        O15 1.922       .   S
Zn13        O14 1.942       .   S
Zn12        O14 1.942       .   S
Zn11        O14 1.942       .   S
Zn10        O14 1.942       .   S
C246       C247 1.540       .   A
C247       H252 1.140       .   S
O19         C29 1.304       .   A
Zn10        O19 1.922       .   S
O18         C27 1.304       .   A
Zn11        O18 1.922       .   S
Zn135      O146 1.922       .   S
Zn135      O140 1.922       .   S
Zn135      O137 1.942       .   S
Zn135      O143 1.922       .   S
Zn134      O139 1.922       .   S
Zn134      O145 1.922       .   S
Zn134      O141 1.922       .   S
Zn134      O137 1.942       .   S
C225       C230 1.540       .   A
C229       C230 1.540       .   A
C230       H234 1.140       .   S
Zn136      O144 1.922       .   S
Zn136      O147 1.922       .   S
Zn136      O148 1.922       .   S
Zn136      O137 1.942       .   S
C236       C237 1.540       .   A
C236        C33 1.701       .   S
C235       C236 1.540       .   A
C237       H242 1.140       .   S
C237       C238 1.540       .   A
Zn133      O138 1.922       .   S
Zn133      O142 1.922       .   S
Zn133      O137 1.942       .   S
Zn133      O149 1.922       .   S
C235       C240 1.540       .   A
C235       H241 1.140       .   S
C238       H243 1.140       .   S
C238       C239 1.540       .   A
C239       C240 1.540       .   A
C73        C239 1.701       .   S
C327       H332 1.140       .   S
C328       H333 1.140       .   S
C325       H331 1.140       .   S
C330       H334 1.140       .   S
C240       H244 1.140       .   S
C250       H254 1.140       .   S
C307       C308 1.540       .   A
C308       H313 1.140       .   S
C308       C309 1.540       .   A
C309       C310 1.540       .   A
C306       C307 1.540       .   A
C305       C306 1.540       .   A
C306        C85 2.237       .   S
C307       H312 1.140       .   S
C305       C310 1.540       .   A
C305       H311 1.140       .   S
C295       C300 1.540       .   A
C300       H304 1.140       .   S
C299       C300 1.540       .   A
C37         C38 1.540       .   A
C38         H41 1.140       .   S
C33         C38 1.540       .   A
C34         C35 1.540       .   A
C35         C36 1.540       .   A
C35        C209 1.644   1_556   S
C34         H39 1.140       .   S
C33         C34 1.540       .   A
C36         C37 1.540       .   A
C219        C37 1.625       .   S
C36         H40 1.140       .   S
C31        C206 1.644       .   S
C30        C216 1.625       .   S
C32        C226 1.744       .   S
O144       C153 1.304       .   A
C153       C386 1.624       .   S
O146       C153 1.304       .   A
C152       C399 1.639       .   S
O140       C152 1.304       .   A
O142       C152 1.304       .   A
O139       C151 1.304       .   A
C151       C326 1.719   1_565   S
O143       C151 1.304       .   A
O138       C150 1.304       .   A
O141       C150 1.304       .   A
C150       C299 1.709       .   S
C157       H162 1.140       .   S
C157       C158 1.540       .   A
C156       C157 1.540       .   A
C156       C161 1.540       .   A
O148       C155 1.304       .   A
O149       C155 1.304       .   A
C379       C155 1.244       .   S
O145       C154 1.304       .   A
O147       C154 1.304       .   A
C154       C369 2.029   1_554   S
C159       H163 1.140       .   S
C158       C159 1.540       .   A
C159       C160 1.540       .   A
C158       C389 1.624   1_556   S
C390       H394 1.140       .   S
C385       C390 1.540       .   A
C389       C390 1.540       .   A
C397       C398 1.540       .   A
C397       H402 1.140       .   S
C396       C397 1.540       .   A
C395       C396 1.540       .   A
C160       C396 1.639       .   S
C398       C399 1.540       .   A
C399       C400 1.540       .   A
C398       H403 1.140       .   S
C276       C277 1.540       .   A
C275       C276 1.540       .   A
C276        C78 1.402   1_656   S
C277       H282 1.140       .   S
C277       C278 1.540       .   A
C275       H281 1.140       .   S
C269       C270 1.540       .   A
C270       H274 1.140       .   S
C265       C270 1.540       .   A
C278       H283 1.140       .   S
C278       C279 1.540       .   A
C71        C279 1.402       .   S
C370       H374 1.140       .   S
C367       H372 1.140       .   S
C368       H373 1.140       .   S
C365       H371 1.140       .   S
C205       H211 1.140       .   S
C208       H213 1.140       .   S
C207       H212 1.140       .   S
C210       H214 1.140       .   S
C78         C79 1.540       .   A
C74         C79 1.540       .   A
C79         H82 1.140       .   S
C77         C78 1.540       .   A
O62         C71 1.304       .   A
O64         C71 1.304       .   A
O60         C70 1.304       .   A
C256        C70 1.816   1_554   S
O66         C73 1.304       .   A
O67         C73 1.304       .   A
O63         C72 1.304       .   A
C72        C266 1.817       .   S
O65         C72 1.304       .   A
C75         H80 1.140       .   S
C74         C75 1.540       .   A
C75         C76 1.540       .   A
C296        C74 1.709       .   S
C77         H81 1.140       .   S
C76         C77 1.540       .   A
C269        C76 1.817   1_655   S
C355       H361 1.140       .   S
C355       C356 1.540       .   A
C355       C360 1.540       .   A
C356       C357 1.540       .   A
C357       C358 1.540       .   A
C357       H362 1.140       .   S
C350       H354 1.140       .   S
C260       H264 1.140       .   S
C359       C360 1.540       .   A
C358       C359 1.540       .   A
C358       H363 1.140       .   S
C257       H262 1.140       .   S
C258       H263 1.140       .   S
C218       H223 1.140       .   S
C395       C400 1.540       .   A
C395       H401 1.140       .   S
C376       C128 1.244       .   S
C128       C129 1.540       .   A
C127       C128 1.540       .   A
C129       H132 1.140       .   S
C124       C129 1.540       .   A
C120       H123 1.140       .   S
C366       C126 2.029       .   S
C126       C127 1.540       .   A
C125       C126 1.540       .   A
C127       H131 1.140       .   S
C339       C124 1.682       .   S
C124       C125 1.540       .   A
C125       H130 1.140       .   S
C228       C229 1.540       .   A
C228       H233 1.140       .   S
C227       C228 1.540       .   A
C225       C226 1.540       .   A
C225       H231 1.140       .   S
C227       H232 1.140       .   S
C226       C227 1.540       .   A
C215       C220 1.540       .   A
C219       C220 1.540       .   A
C320       H324 1.140       .   S
C315       H321 1.140       .   S
C318       H323 1.140       .   S
C317       H322 1.140       .   S
C319       C320 1.540       .   A
C318       C319 1.540       .   A
C317       C318 1.540       .   A
C310       H314 1.140       .   S
C315       C320 1.540       .   A
C315       C316 1.540       .   A
C316       C317 1.540       .   A
C316        C87 0.929       .   S
C27        C196 1.694       .   S
C28        C189 1.242       .   S
C179        C29 2.023   1_554   S
C167       C168 1.540       .   A
C168       H173 1.140       .   S
C168       C169 1.540       .   A
C169       C170 1.540       .   A
C109       C169 1.652   1_556   S
C166       C167 1.540       .   A
C166         C1 1.652       .   S
C165       C166 1.540       .   A
C167       H172 1.140       .   S
C165       C170 1.540       .   A
C165       H171 1.140       .   S
C160       C161 1.540       .   A
C161       H164 1.140       .   S
C367       C368 1.540       .   A
C368       C369 1.540       .   A
C369       C370 1.540       .   A
C365       C366 1.540       .   A
C365       C370 1.540       .   A
C366       C367 1.540       .   A
C360       H364 1.140       .   S
C185       C186 1.540       .   A
C185       H191 1.140       .   S
C185       C190 1.540       .   A
C186       C187 1.540       .   A
C186         C5 1.242       .   S
C187       H192 1.140       .   S
C187       C188 1.540       .   A
C179       C180 1.540       .   A
C180       H184 1.140       .   S
C188       H193 1.140       .   S
C188       C189 1.540       .   A
C189       C190 1.540       .   A
C84         H89 1.140       .   S
C259       C260 1.540       .   A
C255       C260 1.540       .   A
C265       H271 1.140       .   S
C265       C266 1.540       .   A
C267       C268 1.540       .   A
C267       H272 1.140       .   S
C266       C267 1.540       .   A
C268       C269 1.540       .   A
C268       H273 1.140       .   S
C400       H404 1.140       .   S
C215       C216 1.540       .   A
C216       C217 1.540       .   A
C217       C218 1.540       .   A
C205       C210 1.540       .   A
C209       C210 1.540       .   A
C218       C219 1.540       .   A
O100       C109 1.304       .   A
C2           C3 1.540       .   A
C176         C3 2.023       .   S
C3           C4 1.540       .   A
C1           C2 1.540       .   A
C2           H7 1.140       .   S
C1           C6 1.540       .   A
C6           H9 1.140       .   S
C5           C6 1.540       .   A
C4           C5 1.540       .   A
C4           H8 1.140       .   S
O61         C69 1.304       .   A
C170       H174 1.140       .   S
C325       C330 1.540       .   A
C325       C326 1.540       .   A
C326       C327 1.540       .   A
C327       C328 1.540       .   A
C328       C329 1.540       .   A
C329       C330 1.540       .   A
C329        C83 1.719       .   S
C83         C88 1.540       .   A
C83         C84 1.540       .   A
C84         C85 1.540       .   A
C85         C86 1.540       .   A
C86         H90 1.140       .   S
C86         C87 1.540       .   A
C87         C88 1.540       .   A
C88         H91 1.140       .   S
C258       C259 1.540       .   A
C257       C258 1.540       .   A
C255       C256 1.540       .   A
C256       C257 1.540       .   A
C338       C339 1.540       .   A
C337       C338 1.540       .   A
C178       C179 1.540       .   A
C178       H183 1.140       .   S
C379       C380 1.540       .   A
C378       C379 1.540       .   A
C377       C378 1.540       .   A
C376       C377 1.540       .   A
C375       C376 1.540       .   A
C375       C380 1.540       .   A
C196       C197 1.540       .   A
C195       C196 1.540       .   A
C195       C200 1.540       .   A
C190       H194 1.140       .   S
Zn53        O61 1.922       .   S
Zn53        O64 1.922       .   S
Zn52        O63 1.922       .   S
Zn51        O60 1.922       .   S
Zn51        O67 1.922       .   S
C199       C200 1.540       .   A
Zn54        O62 1.922       .   S
Zn54        O66 1.922       .   S
Zn54        O65 1.922       .   S
C297       C298 1.540       .   A
C298       H303 1.140       .   S
C298       C299 1.540       .   A
C295       C296 1.540       .   A
C295       H301 1.140       .   S
C296       C297 1.540       .   A
C297       H302 1.140       .   S
O97        C109 1.304       .   A
C385       H391 1.140       .   S
C387       H392 1.140       .   S
C388       H393 1.140       .   S
C206       C207 1.540       .   A
C207       C208 1.540       .   A
C205       C206 1.540       .   A
C208       C209 1.540       .   A
C336       C337 1.540       .   A
C335       C336 1.540       .   A
C386       C387 1.540       .   A
C385       C386 1.540       .   A
C387       C388 1.540       .   A
C388       C389 1.540       .   A
