data_nfa_v1-4c_Cu_1_Ch_1B_4H_Ch
_audit_creation_date              2020-02-03
_audit_creation_method            'tobacco_3.0'
_symmetry_space_group_name_H-M    'P1'
_symmetry_Int_Tables_number       1
_symmetry_cell_setting            triclinic
loop_
_symmetry_equiv_pos_as_xyz
  x,y,z
_cell_length_a                    29.442742450302845
_cell_length_b                    29.438222673117295
_cell_length_c                    29.44181034133711
_cell_angle_alpha                 90.00239573923422
_cell_angle_beta                  89.99860578857368
_cell_angle_gamma                 90.00184241954669
loop_
_atom_site_label
_atom_site_type_symbol
_atom_site_fract_x
_atom_site_fract_y
_atom_site_fract_z
O1         O    0.1193244102    0.3547405467    0.4479827585
O2         O    0.0873915465    0.4356312393    0.3489423049
O3         O    0.0517668781    0.3568822561    0.3838143070
O4         O    0.1549516693    0.4334952742    0.4131082180
O5         O    0.1982357126    0.3931234883    0.3661831546
O6         O    0.0950557745    0.3165103816    0.3368939956
O7         O    0.1306755898    0.3952594533    0.3020172415
O8         O    0.1626084535    0.3143687607    0.4010576951
Cu9       Cu    0.0994067294    0.3988719265    0.4027418972
Cu10      Cu    0.1505932706    0.3511280735    0.3472581028
C11        C    0.1456747664    0.3226265590    0.4391226417
C12        C    0.1043252336    0.4273734410    0.3108773583
C13        C    0.0581987617    0.3254007662    0.3560405621
C14        C    0.1918012383    0.4245992338    0.3939594379
O15        O    0.1932793371    0.0807732823    0.6930459299
O16        O    0.1600072369    0.1800442956    0.6129769512
O17        O    0.1251046936    0.1443138505    0.6916566452
O18        O    0.2281844275    0.1165063383    0.6143605050
O19        O    0.1851475795    0.0694312358    0.5738966984
O20        O    0.0820728846    0.0972341952    0.6511930043
O21        O    0.1169703889    0.1329691932    0.5725131446
O22        O    0.1502424892    0.0336981798    0.6525821232
Cu23      Cu    0.1805692977    0.1347074985    0.6567021619
Cu24      Cu    0.1296804284    0.0790349770    0.6088569126
C25        C    0.1766655772    0.0425980730    0.6846199010
C26        C    0.1335841489    0.1711444025    0.5809391735
C27        C    0.0883951733    0.1248721966    0.6828242603
C28        C    0.2218545528    0.0888702789    0.5827348141
O29        O    0.8821311598    0.0601203980    0.9091909343
O30        O    0.9628251031    0.1599354852    0.9391840228
O31        O    0.8844532361    0.1252710364    0.9758101384
O32        O    0.9605087438    0.0947873702    0.8725621551
O33        O    0.9196856984    0.1409329635    0.8288697339
O34        O    0.8436300897    0.1714118074    0.9321129330
O35        O    0.9220020577    0.2060810785    0.8954916016
O36        O    0.8413081145    0.1062659914    0.8654985131
Cu37      Cu    0.9262053422    0.1058197337    0.9281759419
Cu38      Cu    0.8779278753    0.1603817428    0.8765065940
C39        C    0.8498205501    0.0684765596    0.8829223981
C40        C    0.9543126675    0.1977249169    0.9217601378
C41        C    0.8528283246    0.1528304152    0.9691834945
C42        C    0.9513048930    0.1133710613    0.8354990414
O43        O    0.7106314795    0.8872909955    0.8617985833
O44        O    0.6061391013    0.8114073181    0.8354215336
O45        O    0.6405993329    0.8906036360    0.8003926175
O46        O    0.6761687387    0.8080889008    0.8968300462
O47        O    0.6348946539    0.8478292416    0.9460491156
O48        O    0.5993304182    0.9303436691    0.8496160821
O49        O    0.5648650164    0.8511476590    0.8846406030
O50        O    0.6693573946    0.9270313364    0.9110176527
Cu51      Cu    0.6621487944    0.8457209086    0.8441173839
Cu52      Cu    0.6133477015    0.8927177459    0.9023218024
C53        C    0.7054007572    0.9183510197    0.8902973847
C54        C    0.5700957387    0.8200876348    0.8561418016
C55        C    0.6147260809    0.9226391225    0.8107860929
C56        C    0.6607704150    0.8157995320    0.9356530935
O57        O    0.3766601047    0.5607790155    0.4082380571
O58        O    0.4558501932    0.6617292942    0.4384405978
O59        O    0.3763405124    0.6276800079    0.4731404869
O60        O    0.4561755852    0.5948307806    0.3735356450
O61        O    0.4167800930    0.6396122970    0.3271939444
O62        O    0.3369451094    0.6724565766    0.4267941316
O63        O    0.4164547010    0.7065108106    0.3920988972
O64        O    0.3372646125    0.6055605319    0.3618963565
Cu65      Cu    0.4198520294    0.6071704684    0.4275695431
Cu66      Cu    0.3732627763    0.6601193577    0.3727674112
C67        C    0.3452850057    0.5682857548    0.3806139406
C68        C    0.4478298000    0.6990040713    0.4197230137
C69        C    0.3448722671    0.6549060428    0.4646522813
C70        C    0.4482425386    0.6123837833    0.3356846730
O71        O    0.6728923456    0.6795481276    0.1249114458
O72        O    0.7040254628    0.5808763532    0.2065656532
O73        O    0.7408782500    0.6158891545    0.1284547276
O74        O    0.6360368781    0.6445327777    0.2030280693
O75        O    0.5938834380    0.5972077380    0.1619306774
O76        O    0.6987199237    0.5685688304    0.0873571461
O77        O    0.6618720227    0.5335513136    0.1654682613
O78        O    0.6307389055    0.6322230879    0.0838140539
Cu79      Cu    0.6923069644    0.6345281190    0.1694908286
Cu80      Cu    0.6424574039    0.5785713222    0.1208888784
C81        C    0.6472252364    0.6704336607    0.0923220803
C82        C    0.6875391320    0.5426657805    0.1980576267
C83        C    0.7352558513    0.5880112750    0.0969110849
C84        C    0.5995085170    0.6250881661    0.1934686221
O85        O    0.1257454549    0.6489270921    0.0905557120
O86        O    0.0939417913    0.5691210922    0.1905164624
O87        O    0.0598814177    0.6489264233    0.1564994925
O88        O    0.1598083050    0.5691159398    0.1245751582
O89        O    0.2055630200    0.6081400761    0.1702802039
O90        O    0.1056408584    0.6879504944    0.2021996588
O91        O    0.1396965064    0.6081452286    0.2362215081
O92        O    0.1715001699    0.6879512284    0.1362607577
Cu93      Cu    0.1056669284    0.6054610832    0.1363680922
Cu94      Cu    0.1597750329    0.6516112374    0.1904091280
C95        C    0.1533121496    0.6802073223    0.0986701253
C96        C    0.1121298117    0.5768649983    0.2281070948
C97        C    0.0680287633    0.6802054120    0.1840509702
C98        C    0.1974131979    0.5768669086    0.1427262499
O99        O    0.1939414347    0.9213553274    0.8374607587
O100       O    0.1642353243    0.8226597457    0.9196201142
O101       O    0.1274742583    0.8560955799    0.8407813603
O102       O    0.2307051833    0.8879170497    0.9163052551
O103       O    0.1869368271    0.9345527859    0.9564909054
O104       O    0.0837108179    0.9027359950    0.8809667045
O105       O    0.1204669681    0.8692954820    0.9598057644
O106       O    0.1501730785    0.9679910636    0.8776464090
Cu107     Cu    0.1830812411    0.8677489199    0.8748751633
Cu108     Cu    0.1313271617    0.9229018895    0.9223913599
C109       C    0.1764361157    0.9592259772    0.8454394970
C110       C    0.1379722871    0.8314248321    0.9518270261
C111       C    0.0903765481    0.8747258607    0.8497358118
C112       C    0.2240318547    0.9159249487    0.9475307113
O113       O    0.9491783412    0.8425569741    0.6027855007
O114       O    0.8672810986    0.9398699066    0.6373731861
O115       O    0.9472096467    0.9058836867    0.6711514731
O116       O    0.8692439710    0.8765456777    0.5690047485
O117       O    0.8304422840    0.8284441202    0.6124339179
O118       O    0.9084081648    0.8577775936    0.7145755889
O119       O    0.8284794115    0.8917683491    0.6808023555
O120       O    0.9103766541    0.7944554166    0.6462146701
Cu121     Cu    0.9117687160    0.8956057734    0.6161175628
Cu122     Cu    0.8658890367    0.8387195498    0.6674702934
C123       C    0.9418529701    0.8041572463    0.6194014416
C124       C    0.8358047826    0.9301680769    0.6641864145
C125       C    0.9393070392    0.8861545485    0.7079195417
C126       C    0.8383507135    0.8481707747    0.5756683145
O127       O    0.4568956530    0.3359070497    0.1016040920
O128       O    0.3752420471    0.4348678348    0.1318158410
O129       O    0.4540675128    0.4010292397    0.1682315038
O130       O    0.3780644456    0.3697481177    0.0651857718
O131       O    0.3378414360    0.3231769623    0.1089878989
O132       O    0.4138447733    0.3544534154    0.2120287034
O133       O    0.3350190374    0.3882966795    0.1756179682
O134       O    0.4166726433    0.2893358943    0.1454062192
Cu135     Cu    0.4197375483    0.3896401704    0.1127140361
Cu136     Cu    0.3721771420    0.3345635588    0.1645080241
C137       C    0.4488236662    0.2980295843    0.1190517410
C138       C    0.3430910242    0.4261741449    0.1581703192
C139       C    0.4451649903    0.3823515833    0.2053187743
C140       C    0.3467497000    0.3418521459    0.0719032859
O141       O    0.6928907758    0.4157443095    0.3465447636
O142       O    0.6583446655    0.3185220717    0.4285679373
O143       O    0.6245356279    0.3524119882    0.3486096235
O144       O    0.7267022808    0.3818519163    0.4265089017
O145       O    0.6832817981    0.4299932398    0.4652716572
O146       O    0.5811201980    0.4005578476    0.3873721668
O147       O    0.6149241828    0.3666633952    0.4673306928
O148       O    0.6494702931    0.4638856330    0.3853075191
Cu149     Cu    0.6795787096    0.3627372307    0.3840209108
Cu150     Cu    0.6282362490    0.4196704740    0.4298545456
C151       C    0.6762730480    0.4541505476    0.3538321007
C152       C    0.6315419106    0.3282571572    0.4600433558
C153       C    0.5877689627    0.3721459798    0.3565025477
C154       C    0.7200459959    0.4102617249    0.4573729087
O155       O    0.6885752893    0.1095348143    0.6869796919
O156       O    0.5879824377    0.1887844235    0.7181693932
O157       O    0.6224170653    0.1093300569    0.7526279847
O158       O    0.6541381549    0.1889949766    0.6525185949
O159       O    0.6088479270    0.1495035645    0.6067521586
O160       O    0.5771317318    0.0698387258    0.7068568383
O161       O    0.5426922098    0.1492930115    0.6724029569
O162       O    0.6432850614    0.0700434022    0.6412132555
Cu163     Cu    0.6424089876    0.1527652550    0.7067522910
Cu164     Cu    0.5888585115    0.1060625708    0.6526303577
C165       C    0.6807614931    0.0781029790    0.6594976644
C166       C    0.5505060060    0.1807248467    0.6998849844
C167       C    0.5951029709    0.0778389340    0.7445017115
C168       C    0.6361645282    0.1809888918    0.6148809372
O169       O    0.5838548626    0.8387914043    0.4456701272
O170       O    0.6629272388    0.9406025983    0.4181738914
O171       O    0.5850661529    0.9056509128    0.3807410034
O172       O    0.6617216196    0.8737456437    0.4831057469
O173       O    0.7032118097    0.8293836361    0.4382057080
O174       O    0.6265561885    0.8612841061    0.3358457701
O175       O    0.7044174288    0.8962405908    0.3732738525
O176       O    0.6253450527    0.7944293968    0.4007700883
Cu177     Cu    0.6196066415    0.8937482119    0.4360182077
Cu178     Cu    0.6686656500    0.8412837832    0.3829257720
C179       C    0.5929410468    0.8015982617    0.4272731180
C180       C    0.6953312447    0.9334337334    0.3916708617
C181       C    0.5945061767    0.8881696006    0.3432050665
C182       C    0.6937661147    0.8468623945    0.4757389132
O183       O    0.4602406027    0.9106272363    0.1598358023
O184       O    0.3592971331    0.9420257523    0.0811285577
O185       O    0.3955452089    0.9777196017    0.1592154685
O186       O    0.4239898881    0.8749307913    0.0817431953
O187       O    0.3782436797    0.8311911841    0.1229677294
O188       O    0.3498037891    0.9339751760    0.2004399790
O189       O    0.3135509248    0.8982861452    0.1223530918
O190       O    0.4144943944    0.8668876292    0.2010603364
Cu191     Cu    0.4139406078    0.9303193000    0.1167183914
Cu192     Cu    0.3598509197    0.8785940815    0.1654705028
C193       C    0.4522505281    0.8841278777    0.1920542378
C194       C    0.3215409994    0.9247855038    0.0901346564
C195       C    0.3684861207    0.9710016116    0.1912498473
C196       C    0.4053054068    0.8379117699    0.0909390468
O197       O    0.4126925428    0.6550593844    0.9605586863
O198       O    0.4432668879    0.5755530784    0.8599724875
O199       O    0.4784262568    0.6546704366    0.8944861293
O200       O    0.3775306174    0.5759362551    0.9260425320
O201       O    0.3322008170    0.6158687075    0.8807057175
O202       O    0.4330917394    0.6946028506    0.8491542030
O203       O    0.3979370875    0.6154855308    0.8146356731
O204       O    0.3673627424    0.6949918368    0.9152218718
Cu205     Cu    0.4321176049    0.6116603367    0.9143999632
Cu206     Cu    0.3785120255    0.6588845786    0.8607943961
C207       C    0.3855195764    0.6867495890    0.9527206162
C208       C    0.4251100540    0.5837953262    0.8224737431
C209       C    0.4706342121    0.6862448789    0.8671730188
C210       C    0.3399954182    0.5843000363    0.9080213405
O211       O    0.9172058956    0.1483948363    0.4588877886
O212       O    0.9483983968    0.0690188574    0.3583885381
O213       O    0.9831929593    0.1482252539    0.3930673400
O214       O    0.8824088032    0.0691826622    0.4242064622
O215       O    0.8371358878    0.1090000227    0.3787118745
O216       O    0.9379153085    0.1880425602    0.3475776224
O217       O    0.9031254814    0.1088362179    0.3128939504
O218       O    0.8719329803    0.1882121968    0.4133932009
Cu219     Cu    0.9369348610    0.1050714599    0.4127869416
Cu220     Cu    0.8833965161    0.1521595944    0.3589947974
C221       C    0.8899702265    0.1800082790    0.4509580121
C222       C    0.9303611506    0.0772227752    0.3208237269
C223       C    0.9754128907    0.1797876097    0.3657368543
C224       C    0.8449184864    0.0774434445    0.4060448847
O225       O    0.0918864477    0.3275636458    0.9465938339
O226       O    0.1684171317    0.4312374281    0.9188646770
O227       O    0.0906263014    0.3951266611    0.8823979764
O228       O    0.1696829439    0.3636770509    0.9830631959
O229       O    0.2112586797    0.3206447760    0.9369644427
O230       O    0.1322020627    0.3520895336    0.8363039772
O231       O    0.2099928675    0.3882051532    0.8727659237
O232       O    0.1334621834    0.2845313708    0.9004950806
Cu233     Cu    0.1263594941    0.3833304502    0.9369348448
Cu234     Cu    0.1755198210    0.3324383487    0.8824249128
C235       C    0.1013901557    0.2907607511    0.9276318057
C236       C    0.2004891594    0.4250080478    0.8917279519
C237       C    0.0997552760    0.3782429014    0.8445132614
C238       C    0.2021240391    0.3375258975    0.9748464962
O239       O    0.8494734131    0.4199864562    0.7115138844
O240       O    0.8772812206    0.3180236146    0.6327428964
O241       O    0.9144881950    0.3532067729    0.7106101322
O242       O    0.8122637235    0.3848007272    0.6336409771
O243       O    0.8572016596    0.4291214893    0.5921488639
O244       O    0.9594213192    0.3975323285    0.6691181511
O245       O    0.9222191567    0.3623443768    0.5912507832
O246       O    0.8944113492    0.4643072183    0.6700217713
Cu247     Cu    0.8592776680    0.3649575859    0.6759129847
Cu248     Cu    0.9124149019    0.4173732470    0.6268516829
C249       C    0.8678434303    0.4571813375    0.7023823019
C250       C    0.9038491396    0.3251494955    0.6003823658
C251       C    0.9520223865    0.3707133612    0.7012153711
C252       C    0.8196701834    0.4116174717    0.6015492965
O253       O    0.4557281874    0.4481585410    0.6876707049
O254       O    0.4291141855    0.3710405279    0.5841426401
O255       O    0.3939823867    0.4504951307    0.6178979260
O256       O    0.4908625507    0.3686981509    0.6539129526
O257       O    0.4419732974    0.3292531880    0.6958554934
O258       O    0.3450977135    0.4110500604    0.6598454823
O259       O    0.3802249322    0.3315955650    0.6260851810
O260       O    0.4068389341    0.4087135781    0.7296132458
Cu261     Cu    0.4468814725    0.4131973803    0.6320761879
Cu262     Cu    0.3890716471    0.3665567257    0.6816796980
C263       C    0.4352064696    0.4398068644    0.7239072043
C264       C    0.4007466500    0.3399472417    0.5898486817
C265       C    0.3552604159    0.4428354263    0.6335638886
C266       C    0.4806927037    0.3369186798    0.6801919974
O267       O    0.3546898098    0.0982225640    0.3304767784
O268       O    0.3842029528    0.1978522958    0.4115784817
O269       O    0.4211458098    0.1635212010    0.3332061644
O270       O    0.3177442569    0.1325561675    0.4088548042
O271       O    0.3614231278    0.0863857680    0.4496641508
O272       O    0.4648197658    0.1173461191    0.3740152471
O273       O    0.4278818237    0.1516818963    0.4523878284
O274       O    0.3983686807    0.0520521645    0.3712861251
Cu275     Cu    0.3654616813    0.1522536035    0.3673054115
Cu276     Cu    0.4171099522    0.0976508568    0.4155591953
C277       C    0.3721788386    0.0604468457    0.3389233200
C278       C    0.4103927950    0.1894576146    0.4439412868
C279       C    0.4582239421    0.1449972796    0.3424541039
C280       C    0.3243476914    0.1049071806    0.4404105028
O281       O    0.6809390029    0.0766168041    0.1348266784
O282       O    0.6008366253    0.1758593112    0.1015536555
O283       O    0.6795246153    0.1401538127    0.0666476794
O284       O    0.6022452729    0.1123249018    0.1697351929
O285       O    0.6426944752    0.1594170279    0.2127673364
O286       O    0.7199738531    0.1872412326    0.1096847218
O287       O    0.6412858276    0.2229514374    0.1445857991
O288       O    0.7213882052    0.1237089303    0.1778588219
Cu289     Cu    0.6371947402    0.1219434458    0.1142618693
Cu290     Cu    0.6850300902    0.1776247957    0.1651506082
C291       C    0.7129754692    0.0855306533    0.1612486844
C292       C    0.6092493613    0.2140375882    0.1181637930
C293       C    0.7111429905    0.1677951233    0.0729680298
C294       C    0.6110818399    0.1317731182    0.2064444477
O295       O    0.9467146008    0.8211120714    0.2086613196
O296       O    0.8475478633    0.9018468954    0.1767331040
O297       O    0.8825299557    0.8231428577    0.1411155319
O298       O    0.9117299522    0.8998218418    0.2442814909
O299       O    0.9585812706    0.9402539102    0.2009748751
O300       O    0.9293858743    0.8635747137    0.0978139098
O301       O    0.8943991818    0.9422789638    0.1334264883
O302       O    0.9935659193    0.8615441399    0.1653547039
Cu303     Cu    0.8928529409    0.8577916792    0.1966478766
Cu304     Cu    0.9482608417    0.9055993560    0.1454399312
C305       C    0.9847625314    0.8294240578    0.1917145200
C306       C    0.8563512512    0.9339669775    0.1503732879
C307       C    0.9016544618    0.8320503135    0.1042583612
C308       C    0.9394593208    0.9313407217    0.2378294467
O309       O    0.1703638080    0.5782798836    0.6223705868
O310       O    0.0890930860    0.6773234079    0.5914188616
O311       O    0.1670990936    0.6421143354    0.5545338167
O312       O    0.0923521101    0.6134915191    0.6592583143
O313       O    0.1335909267    0.6605649992    0.7015550502
O314       O    0.2083380792    0.6891830875    0.5968354277
O315       O    0.1303319026    0.7243968880    0.6337155974
O316       O    0.2116026246    0.6253533636    0.6646673227
Cu317     Cu    0.1259632732    0.6235087335    0.6030335928
Cu318     Cu    0.1747324374    0.6791680381    0.6530525914
C319       C    0.2029673450    0.5872137538    0.6480826008
C320       C    0.0977283656    0.7154630178    0.6080035834
C321       C    0.1987390194    0.6698633595    0.5602450763
C322       C    0.1019566912    0.6328134121    0.6958411079
O323       O    0.8876785653    0.6969221329    0.9192993817
O324       O    0.8573233727    0.5961763727    0.8399047931
O325       O    0.8226697924    0.6301266062    0.9194795004
O326       O    0.9223346653    0.6629694279    0.8397188700
O327       O    0.9685972713    0.6180353731    0.8790331960
O328       O    0.8689370609    0.5851974916    0.9587937476
O329       O    0.9035859788    0.5512423179    0.8792191192
O330       O    0.9339411713    0.6519880781    0.9586137077
Cu331     Cu    0.8682779668    0.6506468649    0.8760126079
Cu332     Cu    0.9229865772    0.5975175859    0.9225058929
C333       C    0.9152856411    0.6893089668    0.9506640489
C334       C    0.8759789030    0.5588554840    0.8478544519
C335       C    0.8311096126    0.6028252422    0.9508962030
C336       C    0.9601549314    0.6453392086    0.8476222978
C807       C    0.0801424139    0.6549115484    0.7804309449
C808       C    0.0666998915    0.6359277563    0.7335791375
C809       C    0.0176132890    0.6200925183    0.7248798955
C810       C   -0.0180307912    0.6232410723    0.7630324609
C811       C   -0.0045882689    0.6422248643    0.8098842682
C812       C    0.0444983336    0.6580601023    0.8185835103
H813       H    0.1164792495    0.6666337376    0.7868706436
H814       H    0.0076616283    0.6060402818    0.6902000789
H815       H   -0.0543676268    0.6115188831    0.7565927622
H816       H    0.0544499943    0.6721123389    0.8532633269
C797       C    0.8746842871    0.8003996569    0.0233351086
C798       C    0.9050765170    0.7962156462    0.0656990986
C799       C    0.9388622813    0.7564956294    0.0698251950
C800       C    0.9422558157    0.7209596234    0.0315873015
C801       C    0.9118635858    0.7251436341   -0.0107766884
C802       C    0.8780778215    0.7648636509   -0.0149027849
H803       H    0.8496740460    0.8298027863    0.0202807256
H804       H    0.9613595711    0.7533973825    0.1011830003
H805       H    0.9672660568    0.6915564940    0.0346416845
H806       H    0.8555805318    0.7679618978   -0.0462605902
C787       C    0.7882665776    0.0465622132    0.1928003465
C788       C    0.7487647035    0.0476975699    0.1585339853
C789       C    0.7451614861    0.0108841721    0.1215446250
C790       C    0.7810601427   -0.0270645824    0.1188216259
C791       C    0.8205620169   -0.0281999392    0.1530879870
C792       C    0.8241652343    0.0086134586    0.1900773473
H793       H    0.7909338944    0.0738136895    0.2201820807
H794       H    0.7159222252    0.0117233941    0.0961796156
H795       H    0.7783928259   -0.0543160588    0.0914398916
H796       H    0.8534044952    0.0077742366    0.2154423567
C777       C    0.4851664168    0.1420043826    0.2579036120
C778       C    0.4956568340    0.1417588562    0.3091471251
C779       C    0.5451433083    0.1381396724    0.3256927889
C780       C    0.5841393653    0.1347660152    0.2909949396
C781       C    0.5736489480    0.1350115417    0.2397514265
C782       C    0.5241624738    0.1386307254    0.2232057627
H783       H    0.4485335722    0.1446835186    0.2456555232
H784       H    0.5529098440    0.1379578201    0.3636235788
H785       H    0.6207722099    0.1320868792    0.3032430284
H786       H    0.5163959381    0.1388125778    0.1852749728
C767       C    0.4413302843    0.2664918989    0.5550239777
C768       C    0.4031649106    0.3022199272    0.5532701196
C769       C    0.3674043488    0.3004304564    0.5151411261
C770       C    0.3698091607    0.2629129573    0.4787659908
C771       C    0.4079745343    0.2271849290    0.4805198489
C772       C    0.4437350961    0.2289743998    0.5186488424
H773       H    0.4678023884    0.2678165720    0.5832493365
H774       H    0.3391533432    0.3268761594    0.5138417199
H775       H    0.3433370565    0.2615882842    0.4505406320
H776       H    0.4719861017    0.2025286968    0.5199482486
C757       C    0.2716281037    0.4718935634    0.6121837971
C758       C    0.3169844235    0.4791221972    0.6372128932
C759       C    0.3244702002    0.5222532239    0.6658523408
C760       C    0.2865996572    0.5581556167    0.6694626923
C761       C    0.2412433375    0.5509269829    0.6444335962
C762       C    0.2337575607    0.5077959562    0.6157941486
H763       H    0.2660866845    0.4399654007    0.5909831670
H764       H    0.3580430239    0.5276051980    0.6843796952
H765       H    0.2921410764    0.5900837794    0.6906633224
H766       H    0.2001847371    0.5024439821    0.5972667943
C747       C    0.8254635339    0.4942779283    0.7553770011
C748       C    0.8695158642    0.4780828020    0.7322874556
C749       C    0.9159634970    0.4918232844    0.7520288314
C750       C    0.9183587994    0.5217588931    0.7948597527
C751       C    0.8743064690    0.5379540195    0.8179492982
C752       C    0.8278588363    0.5242135371    0.7982079224
H753       H    0.7910802213    0.4841064024    0.7407632554
H754       H    0.9485723453    0.4798361443    0.7349386566
H755       H    0.9527421120    0.5319304191    0.8094734984
H756       H    0.7952499880    0.5362006772    0.8152980972
C737       C    0.0130906448    0.3777543260    0.8234754294
C738       C    0.0634087827    0.3763904203    0.8092579041
C739       C    0.0762069692    0.3731142257    0.7586467909
C740       C    0.0386870177    0.3712019367    0.7222532031
C741       C   -0.0116311202    0.3725658423    0.7364707285
C742       C   -0.0244293066    0.3758420369    0.7870818416
H743       H    0.0036166626    0.3801795609    0.8609407988
H744       H    0.1134526810    0.3721045640    0.7481214275
H745       H    0.0481609999    0.3687767017    0.6847878337
H746       H   -0.0616750185    0.3768516987    0.7976072050
C727       C    0.8552903742    0.2515388943    0.4940069548
C728       C    0.8934321058    0.2162115011    0.4882295962
C729       C    0.9350514146    0.2172514940    0.5198928303
C730       C    0.9385289918    0.2536188802    0.5573334231
C731       C    0.9003872603    0.2889462734    0.5631107817
C732       C    0.8587679515    0.2879062805    0.5314475475
H733       H    0.8244812755    0.2507690294    0.4705679373
H734       H    0.9632851059    0.1911023160    0.5156174521
H735       H    0.9693380906    0.2543887450    0.5807724406
H736       H    0.8305342602    0.3140554585    0.5357229258
C717       C    0.8912692752   -0.0185786677    0.2617506946
C718       C    0.9377418554   -0.0411210615    0.2534963120
C719       C    0.9813828158   -0.0182606453    0.2710722042
C720       C    0.9785511962    0.0271421647    0.2969024790
C721       C    0.9320786160    0.0496845584    0.3051568616
C722       C    0.8884376555    0.0268241422    0.2875809694
H723       H    0.8589636292   -0.0355013135    0.2487399692
H724       H    1.0157830356   -0.0349457216    0.2649628957
H725       H    1.0108568422    0.0440648104    0.3099132044
H726       H    0.8540374358    0.0435092185    0.2936902778
C707       C    0.2536329284    0.5542353554    0.8983513332
C708       C    0.3046052976    0.5438906472    0.9038880135
C709       C    0.3212146580    0.4943093339    0.9054113265
C710       C    0.2868516492    0.4550727287    0.9013979592
C711       C    0.2358792801    0.4654174369    0.8958612789
C712       C    0.2192699196    0.5149987503    0.8943379659
H713       H    0.2413376875    0.5909384056    0.8972236859
H714       H    0.3589447502    0.4866506485    0.9095096058
H715       H    0.2991468901    0.4183696785    0.9025256065
H716       H    0.1815398275    0.5226574356    0.8902396866
C697       C    0.4172119407    0.5575620587    0.7514035884
C698       C    0.4271364524    0.5548961605    0.8026909723
C699       C    0.4400827735    0.5091351970    0.8244778576
C700       C    0.4431045829    0.4660401319    0.7949773590
C701       C    0.4331800712    0.4687060302    0.7436899751
C702       C    0.4202337501    0.5144669936    0.7219030898
H703       H    0.4076283004    0.5914370577    0.7352756343
H704       H    0.4474292715    0.5071604604    0.8624412864
H705       H    0.4526882232    0.4321651330    0.8111053131
H706       H    0.4128872521    0.5164417302    0.6839396610
C687       C    0.3578278454    0.7704239685    0.0572962344
C688       C    0.4004422603    0.8007577153    0.0569664282
C689       C    0.4380269065    0.7926644262    0.0215000253
C690       C    0.4329971378    0.7542373904   -0.0136365714
C691       C    0.3903827228    0.7239036436   -0.0133067652
C692       C    0.3527980766    0.7319969326    0.0221596377
H693       H    0.3300054449    0.7764151045    0.0835505846
H694       H    0.4695711345    0.8151171017    0.0212547815
H695       H    0.4608195382    0.7482462543   -0.0398909217
H696       H    0.3212538487    0.7095442572    0.0224048815
C677       C    0.4132318831    1.0125975274    0.2353243772
C678       C    0.3692139060    0.9886300699    0.2203543119
C679       C    0.3263145025    0.9917567711    0.2501165183
C680       C    0.3274330762    1.0188509299    0.2948487901
C681       C    0.3714510533    1.0428183875    0.3098188554
C682       C    0.4143504567    1.0396916862    0.2800566490
H683       H    0.4449885843    1.0102829564    0.2132926140
H684       H    0.2937311947    0.9740162432    0.2390366711
H685       H    0.2956763749    1.0211655010    0.3168805533
H686       H    0.4469337646    1.0574322141    0.2911364962
C667       C    0.4749917025    0.9037803959    0.2767806815
C668       C    0.4875371100    0.8851304290    0.2295472734
C669       C    0.5359237600    0.8674987722    0.2203962441
C670       C    0.5717650024    0.8685170823    0.2584786228
C671       C    0.5592195948    0.8871670493    0.3057120309
C672       C    0.5108329449    0.9047987061    0.3148630602
H673       H    0.4391730136    0.9168324016    0.2835548201
H674       H    0.5452113574    0.8536935749    0.1854339537
H675       H    0.6075836913    0.8554650766    0.2517044842
H676       H    0.5015453475    0.9186039033    0.3498253506
C657       C    0.7826566607    0.9546514226    0.3984402153
C658       C    0.7325300140    0.9692455042    0.3952453374
C659       C    0.7199982188    1.0200326706    0.3956629953
C660       C    0.7575930705    1.0562257553    0.3992755311
C661       C    0.8077197172    1.0416316737    0.4024704090
C662       C    0.8202515123    0.9908445073    0.4020527511
H663       H    0.7919334440    0.9170557280    0.3981310400
H664       H    0.6828942565    1.0308367652    0.3932981713
H665       H    0.7483162871    1.0938214499    0.3995847064
H666       H    0.8573554746    0.9800404127    0.4044175752
C647       C    0.4848237603    0.2171017601    0.6970180218
C648       C    0.5368054489    0.2113772075    0.6960203213
C649       C    0.5675810435    0.2530972106    0.6890407903
C650       C    0.5463749494    0.3005417663    0.6830589599
C651       C    0.4943932608    0.3062663190    0.6840566605
C652       C    0.4636176662    0.2645463159    0.6910361914
H653       H    0.4620418266    0.1862181215    0.7021846875
H654       H    0.6060586787    0.2488612374    0.6883020751
H655       H    0.5691568831    0.3314254050    0.6778922942
H656       H    0.4251400310    0.2687822891    0.6917749066
C637       C    0.5961810734    0.2909095003    0.5369944065
C638       C    0.6327219059    0.2906646326    0.4995680665
C639       C    0.6703940519    0.2543781567    0.5000358065
C640       C    0.6715253654    0.2183365486    0.5379298865
C641       C    0.6349845329    0.2185814164    0.5753562265
C642       C    0.5973123869    0.2548678923    0.5748884865
H643       H    0.5682939004    0.3177709175    0.5366481575
H644       H    0.6974426385    0.2541957581    0.4723329774
H645       H    0.6994125384    0.1914751314    0.5382761355
H646       H    0.5702638003    0.2550502909    0.6025913155
C627       C    0.7177249520    0.4110729285    0.5336958758
C628       C    0.7401242361    0.4105349619    0.4864301911
C629       C    0.7922573737    0.4104016317    0.4821954179
C630       C    0.8219912272    0.4108062682    0.5252263295
C631       C    0.7995919432    0.4113442348    0.5724920142
C632       C    0.7474588056    0.4114775649    0.5767267873
H633       H    0.6791328891    0.4111716274    0.5368307079
H634       H    0.8088388940    0.4100034266    0.4472093920
H635       H    0.8605832901    0.4107075692    0.5220914974
H636       H    0.7308772852    0.4118757701    0.6117128132
C617       C    0.3212470597    0.3336309285    0.0008360979
C618       C    0.3178554359    0.3409878196    0.0525126431
C619       C    0.2710452457    0.3470459127    0.0750514363
C620       C    0.2276266795    0.3457471148    0.0459136842
C621       C    0.2310183033    0.3383902238   -0.0057628611
C622       C    0.2778284935    0.3323321307   -0.0283016542
H623       H    0.3558987589    0.3291463661   -0.0158484632
H624       H    0.2685332964    0.3524916490    0.1133029447
H625       H    0.1929749803    0.3502316773    0.0625982453
H626       H    0.2803404428    0.3268863943   -0.0665531626
C607       C    0.4669417505    0.3894850762    0.2924598518
C608       C    0.4806199263    0.3798142134    0.2429068647
C609       C    0.5301451523    0.3675779188    0.2313576740
C610       C    0.5659922025    0.3650124869    0.2693614702
C611       C    0.5523140267    0.3746833497    0.3189144573
C612       C    0.5027888007    0.3869196443    0.3304636480
H613       H    0.4302802196    0.3985431126    0.3010092527
H614       H    0.5402712568    0.3604191932    0.1946783636
H615       H    0.6026537334    0.3559544505    0.2608120693
H616       H    0.4926626962    0.3940783699    0.3671429584
C597       C    0.5311971883    0.2037653689    0.1186001305
C598       C    0.5753755757    0.2317724458    0.1183512827
C599       C    0.5732149012    0.2840406631    0.1183589192
C600       C    0.5268758392    0.3083018035    0.1186154035
C601       C    0.4826974517    0.2802947266    0.1188642513
C602       C    0.4848581263    0.2280265094    0.1188566148
H603       H    0.5327966486    0.1650733120    0.1185944776
H604       H    0.6059155182    0.3047730560    0.1181747231
H605       H    0.5252763788    0.3469938605    0.1186210564
H606       H    0.4521575093    0.2072941164    0.1190408109
C587       C    0.7703002777    0.8472619062    0.4735698505
C588       C    0.7230311119    0.8471272204    0.4959653666
C589       C    0.7187892483    0.8473818988    0.5480991298
C590       C    0.7618165505    0.8477712630    0.5778373771
C591       C    0.8090857163    0.8479059488    0.5554418611
C592       C    0.8133275799    0.8476512704    0.5033080978
H593       H    0.7734403585    0.8470733780    0.4349773245
H594       H    0.6838006456    0.8472822129    0.5646778611
H595       H    0.7586764697    0.8479597912    0.6164299032
H596       H    0.8483161827    0.8477509563    0.4867293666
C577       C    0.7459417982    0.9533956142    0.6649686986
C578       C    0.7961191266    0.9680342345    0.6629862586
C579       C    0.8084604662    1.0187741482    0.6598595995
C580       C    0.7706244774    1.0548754417    0.6587153803
C581       C    0.7204471490    1.0402368214    0.6606978203
C582       C    0.7081058094    0.9894969077    0.6638244794
H583       H    0.7368060013    0.9158348988    0.6672832384
H584       H    0.8456019369    1.0296112087    0.6583921055
H585       H    0.7797602743    1.0924361571    0.6564008405
H586       H    0.6709643387    0.9786598472    0.6652919734
C567       C    0.9770857423    0.7354444340    0.6315540057
C568       C    0.9744197482    0.7856265138    0.6170201067
C569       C    1.0171246737    0.8099922118    0.5991686136
C570       C    1.0624955934    0.7841758300    0.5958510194
C571       C    1.0651615875    0.7339937503    0.6103849183
C572       C    1.0224566620    0.7096280523    0.6282364114
H573       H    0.9454730053    0.7174074887    0.6447687473
H574       H    1.0151526659    0.8471375800    0.5884101083
H575       H    1.0941083305    0.8022127753    0.5826362777
H576       H    1.0244286699    0.6724826840    0.6389949167
C557       C    0.2954482210    0.9185183270    0.9717256719
C558       C    0.2433014855    0.9176759601    0.9757119182
C559       C    0.2206396916    0.9195128593    1.0228189302
C560       C    0.2501246331    0.9221921255    1.0659396958
C561       C    0.3022713685    0.9230344924    1.0619534495
C562       C    0.3249331625    0.9211975931    1.0148464375
H563       H    0.3122238347    0.9171585444    0.9368542474
H564       H    0.1820401462    0.9188894005    1.0257710263
H565       H    0.2333490194    0.9235519081    1.1008111202
H566       H    0.3635327079    0.9218210520    1.0118943414
C547       C    0.0106160760    0.9069297785    0.8237352933
C548       C    0.0529189904    0.8775595942    0.8145725868
C549       C    0.0571447081    0.8510700203    0.7696649703
C550       C    0.0190675114    0.8539506307    0.7339200602
C551       C   -0.0232354030    0.8833208150    0.7430827667
C552       C   -0.0274611207    0.9098103889    0.7879903832
H553       H    0.0074879473    0.9265389436    0.8569785939
H554       H    0.0884573087    0.8293294760    0.7628813463
H555       H    0.0221956401    0.8343414656    0.7006767597
H556       H   -0.0587737213    0.9315509332    0.7947740072
C537       C    0.2712032483    0.4623987113    0.1157345776
C538       C    0.3065105285    0.4640139187    0.1542922293
C539       C    0.3055593912    0.5031357341    0.1890059363
C540       C    0.2693009738    0.5406423422    0.1851619915
C541       C    0.2339936936    0.5390271348    0.1466043399
C542       C    0.2349448309    0.4999053193    0.1118906329
H543       H    0.2719073370    0.4334384063    0.0900374179
H544       H    0.3316936844    0.5043325430    0.2175472716
H545       H    0.2685968851    0.5696026472    0.2108591512
H546       H    0.2088105378    0.4987085104    0.0833492976
C527       C    0.1097752716    0.7524533213    0.0631723869
C528       C    0.1494390043    0.7183880672    0.0615938706
C529       C    0.1853059511    0.7217508231    0.0236700594
C530       C    0.1815091651    0.7591788332   -0.0126752355
C531       C    0.1418454323    0.7932440872   -0.0110967192
C532       C    0.1059784856    0.7898813313    0.0268270920
H533       H    0.0832244149    0.7499640084    0.0912458576
H534       H    0.2146660402    0.6965359496    0.0225004471
H535       H    0.2080600218    0.7616681460   -0.0407487061
H536       H    0.0766183965    0.8150962049    0.0279967044
C517       C    0.0786573606    0.7541065840    0.1858780683
C518       C    0.0518603405    0.7091803049    0.1855390586
C519       C   -0.0004013727    0.7098884558    0.1875437354
C520       C   -0.0258660659    0.7555228858    0.1898874219
C521       C    0.0009309541    0.8004491649    0.1902264316
C522       C    0.0531926674    0.7997410140    0.1882217548
H523       H    0.1173446028    0.7535823684    0.1843940867
H524       H   -0.0202380856    0.6766342062    0.1872928651
H525       H   -0.0645533082    0.7560471015    0.1913714035
H526       H    0.0730293803    0.8329952637    0.1884726251
C507       C    0.6386103318    0.5170064046    0.2532426543
C508       C    0.6851887556    0.5241993717    0.2305559327
C509       C    0.7284845137    0.5056011311    0.2532581421
C510       C    0.7252018482    0.4798099235    0.2986470731
C511       C    0.6786234244    0.4726169564    0.3213337947
C512       C    0.6353276663    0.4912151970    0.2986315853
H513       H    0.6065602252    0.5307739333    0.2364371227
H514       H    0.7629630676    0.5109247512    0.2364662299
H515       H    0.7572519548    0.4660423947    0.3154526047
H516       H    0.6008491124    0.4858915769    0.3154234975
C497       C    0.7352364902    0.5746247734    0.0217154144
C498       C    0.7545801272    0.5909977952    0.0674742447
C499       C    0.8025263690    0.6117912804    0.0696624742
C500       C    0.8311289737    0.6162117439    0.0260918734
C501       C    0.8117853368    0.5998387221   -0.0196669568
C502       C    0.7638390950    0.5790452368   -0.0218551863
H503       H    0.6997438177    0.5592321934    0.0200955562
H504       H    0.8168459777    0.6239111910    0.1035330669
H505       H    0.8666216462    0.6316043239    0.0277117317
H506       H    0.7495194863    0.5669253262   -0.0557257791
C487       C    0.4736511398    0.7717712647    0.4139697280
C488       C    0.4777117228    0.7201307017    0.4212777632
C489       C    0.5244460063    0.6986606035    0.4308061010
C490       C    0.5671197069    0.7288310683    0.4330264037
C491       C    0.5630591240    0.7804716313    0.4257183685
C492       C    0.5163248404    0.8019417295    0.4161900307
H493       H    0.4390556312    0.7876647140    0.4069162831
H494       H    0.5274531144    0.6604357628    0.4362157842
H495       H    0.6017152155    0.7129376190    0.4400798485
H496       H    0.5133177323    0.8401665702    0.4107803475
C477       C    0.5344760526    0.6280739777    0.3149397420
C478       C    0.4858376583    0.6155412864    0.3003387909
C479       C    0.4752371335    0.6062032834    0.2499756965
C480       C    0.5132750030    0.6093979718    0.2142135532
C481       C    0.5619133974    0.6219306631    0.2288145043
C482       C    0.5725139222    0.6312686660    0.2791775987
H483       H    0.5423231943    0.6349865254    0.3522215132
H484       H    0.4392348314    0.5969263343    0.2391665305
H485       H    0.5054278613    0.6024854241    0.1769317820
H486       H    0.6085162242    0.6405456151    0.2899867647
C467       C    0.2710730392    0.6936349112    0.5543916413
C468       C    0.2281923333    0.6668486962    0.5409782452
C469       C    0.2289249374    0.6355984861    0.4990352827
C470       C    0.2725382472    0.6311344911    0.4705057163
C471       C    0.3154189531    0.6579207061    0.4839191124
C472       C    0.3146863491    0.6891709162    0.5258620749
H473       H    0.2705307219    0.7167681835    0.5854403278
H474       H    0.1971848145    0.6157704360    0.4891054072
H475       H    0.2730805645    0.6080012187    0.4394570298
H476       H    0.3464264720    0.7089989663    0.5357919504
C457       C    0.5716285917    0.7470302027    0.8532779653
C458       C    0.5514986517    0.7950620248    0.8582043932
C459       C    0.5002350354    0.8011980790    0.8665838381
C460       C    0.4691013591    0.7593023110    0.8700368552
C461       C    0.4892312991    0.7112704889    0.8651104272
C462       C    0.5404949154    0.7051344348    0.8567309823
H463       H    0.6095769830    0.7424879289    0.8470749995
H464       H    0.4853333031    0.8367512571    0.8702306278
H465       H    0.4311529679    0.7638445848    0.8762398209
H466       H    0.5553966478    0.6695812566    0.8530841927
C447       C    0.6549182148    0.7941105372    1.0256251773
C448       C    0.6573064389    0.7786243918    0.9757188358
C449       C    0.6563860498    0.7276304509    0.9640812454
C450       C    0.6530774367    0.6921226555    1.0023499964
C451       C    0.6506892126    0.7076088009    1.0522563379
C452       C    0.6516096016    0.7586027418    1.0638939284
H453       H    0.6555995417    0.8318592986    1.0342400170
H454       H    0.6581537757    0.7161660473    0.9271403805
H455       H    0.6523961097    0.6543738940    0.9937351567
H456       H    0.6498418757    0.7700671454    1.1008347933
C437       C    0.6131965330    0.9592342100    0.7462353998
C438       C    0.6109564310    0.9524534049    0.7980526930
C439       C    0.6026744239    0.9934582232    0.8294611953
C440       C    0.5966325187    1.0412438465    0.8090524045
C441       C    0.5988726207    1.0480246516    0.7572351114
C442       C    0.6071546279    1.0070198333    0.7258266091
H443       H    0.6193273695    0.9288799939    0.7229849500
H444       H    0.6010160462    0.9884403930    0.8678171655
H445       H    0.5905016822    1.0715980626    0.8323028543
H446       H    0.6088130055    1.0120376635    0.6874706389
C427       C    1.0257803159    0.2965122990    0.9241991802
C428       C    1.0720329379    0.2721904499    0.9264597988
C429       C    1.0741040336    0.2199209849    0.9269565903
C430       C    1.0299225073    0.1919733690    0.9251927632
C431       C    0.9836698853    0.2162952181    0.9229321447
C432       C    0.9815987896    0.2685646831    0.9224353532
H433       H    1.0242471671    0.3352052796    0.9238314255
H434       H    1.1083401255    0.2019163845    0.9286299078
H435       H    1.0314556561    0.1532803884    0.9255605179
H436       H    0.9473626976    0.2865692835    0.9207620357
C417       C    0.8049053404    0.0055790600    0.9295398346
C418       C    0.8138537277    0.0310887575    0.8847590912
C419       C    0.7865590409    0.0189234872    0.8418291480
C420       C    0.7503159669   -0.0187514807    0.8436799482
C421       C    0.7413675796   -0.0442611782    0.8884606916
C422       C    0.7686622664   -0.0320959079    0.9313906348
H423       H    0.8251104981    0.0145845198    0.9613191432
H424       H    0.7931817416    0.0378052897    0.8086812423
H425       H    0.7301108092   -0.0277569405    0.8119006396
H426       H    0.7620395657   -0.0509777104    0.9645385406
C407       C    0.7826985046    0.1247040768    0.9827624161
C408       C    0.8240304963    0.1558720221    0.9902779094
C409       C    0.8233176492    0.1914807145    1.0285912554
C410       C    0.7812728105    0.1959214616    1.0593891082
C411       C    0.7399408188    0.1647535163    1.0518736149
C412       C    0.7406536659    0.1291448239    1.0135602688
H413       H    0.7832261966    0.0983443955    0.9544005886
H414       H    0.8539114199    0.2145522438    1.0341554094
H415       H    0.7807451184    0.2222811430    1.0877509357
H416       H    0.7100598952    0.1060732947    1.0079961149
C397       C    0.0637178052    0.0907069884    0.7612083945
C398       C    0.0547421758    0.1220488916    0.7203029496
C399       C    0.0108744038    0.1504635321    0.7182562060
C400       C   -0.0240177389    0.1475362694    0.7571149073
C401       C   -0.0150421096    0.1161943663    0.7980203521
C402       C    0.0288256625    0.0877797258    0.8000670957
H403       H    0.0961913507    0.0696727741    0.7627235164
H404       H    0.0042292865    0.1736635966    0.6879780763
H405       H   -0.0564912845    0.1685704838    0.7555997853
H406       H    0.0354707797    0.0645796613    0.8303452254
C387       C    0.1652410552    0.0278371050    0.8084275807
C388       C    0.1764845873   -0.0231624542    0.8114678748
C389       C    0.1877943785   -0.0500875342    0.7680699931
C390       C    0.1878606377   -0.0260130548    0.7216318173
C391       C    0.1766171056    0.0249865044    0.7185915231
C392       C    0.1653073144    0.0519115844    0.7619894049
H393       H    0.1568688721    0.0477686577    0.8405532853
H394       H    0.1961171589   -0.0878380788    0.7703190346
H395       H    0.1962328208   -0.0459446075    0.6895061126
H396       H    0.1569845340    0.0896621290    0.7597403634
C377       C    0.2276246287    0.0712520347    0.5082971066
C378       C    0.2426609071    0.0921258086    0.5538426357
C379       C    0.2881374005    0.1177625037    0.5571181875
C380       C    0.3185776155    0.1225254248    0.5148482104
C381       C    0.3035413371    0.1016516509    0.4693026813
C382       C    0.2580648437    0.0760149559    0.4660271294
H383       H    0.1939602115    0.0522742215    0.5058723474
H384       H    0.2992686396    0.1332140082    0.5908309300
H385       H    0.3522420327    0.1415032380    0.5172729696
H386       H    0.2469336046    0.0605634513    0.4323143870
C367       C    0.0883208843    0.4600250914    0.2456530069
C368       C    0.1058407536    0.4564022295    0.2948047418
C369       C    0.1257473920    0.4984963578    0.3186439615
C370       C    0.1281341610    0.5442133479    0.2933314462
C371       C    0.1106142917    0.5478362098    0.2441797114
C372       C    0.0907076533    0.5057420815    0.2203404917
H373       H    0.0735848014    0.4288645029    0.2280057924
H374       H    0.1387161670    0.4958160605    0.3550266554
H375       H    0.1428702440    0.5753739364    0.3109786608
H376       H    0.0777388783    0.5084223788    0.1839577978
C357       C    0.2805007617    0.4458691586    0.3932763443
C358       C    0.2304323038    0.4607643834    0.3906004457
C359       C    0.2184746641    0.5113377191    0.3846107907
C360       C    0.2565854824    0.5470158300    0.3812970342
C361       C    0.3066539403    0.5321206053    0.3839729328
C362       C    0.3186115799    0.4815472695    0.3899625879
H363       H    0.2893525209    0.4084317542    0.3977102448
H364       H    0.1814137911    0.5223647120    0.3826299105
H365       H    0.2477337231    0.5844532344    0.3768631338
H366       H    0.3556724529    0.4705202766    0.3919434680
C347       C    0.0613717173    0.2555760674    0.3336691598
C348       C    0.0426174152    0.2979945311    0.3578655267
C349       C   -0.0019484759    0.2950126516    0.3850850751
C350       C   -0.0277600649    0.2496123085    0.3881082565
C351       C   -0.0090057628    0.2071938448    0.3639118896
C352       C    0.0355601282    0.2101757243    0.3366923413
H353       H    0.0943620522    0.2577834327    0.3135196240
H354       H   -0.0158317540    0.3264105533    0.4029960013
H355       H   -0.0607503998    0.2474049432    0.4082577923
H356       H    0.0494434064    0.1787778226    0.3187814150
C337       C    0.1039710047    0.2499003091    0.4718838058
C338       C    0.1426721851    0.2850075136    0.4743413280
C339       C    0.1783306380    0.2819926853    0.5124884298
C340       C    0.1752879106    0.2438706525    0.5481780094
C341       C    0.1365867302    0.2087634480    0.5457204871
C342       C    0.1009282772    0.2117782763    0.5075733853
H343       H    0.0775744876    0.2521320650    0.4436450421
H344       H    0.2069782427    0.3079788179    0.5143086863
H345       H    0.2016844277    0.2416388965    0.5764167731
H346       H    0.0722806726    0.1857921437    0.5057531288
loop_
_geom_bond_atom_site_label_1
_geom_bond_atom_site_label_2
_geom_bond_distance
_geom_bond_site_symmetry_2
_ccdc_geom_bond_type
O309       C319 1.250       .   A
O309      Cu317 1.951       .   S
O302       C305 1.250       .   A
O302      Cu304 1.951       .   S
O300       C307 1.251       .   A
O300      Cu304 1.951       .   S
O301       C306 1.250       .   A
O301      Cu304 1.951       .   S
C620       H625 1.140       .   S
C512       H516 1.140       .   S
C509       H514 1.140       .   S
C510       H515 1.140       .   S
C507       H513 1.140       .   S
O48         C55 1.251       .   A
O48        Cu52 1.951       .   S
O29         C39 1.250       .   A
O29        Cu37 1.951       .   S
C690       H695 1.140       .   S
C689       H694 1.140       .   S
C692       H696 1.140       .   S
O22        Cu24 1.951       .   S
O22         C25 1.250       .   A
O20        Cu24 1.951       .   S
O20         C27 1.251       .   A
O21        Cu24 1.951       .   S
O21         C26 1.250       .   A
C557       C562 1.540       .   A
C562       H566 1.140       .   S
C561       C562 1.540       .   A
O246       C249 1.250       .   A
C249       C748 1.075       .   S
O239       C249 1.250       .   A
C560       C561 1.540       .   A
C561       C194 1.006   1_556   S
O49        Cu52 1.951       .   S
O50        Cu52 1.951       .   S
Cu51       Cu52 2.630       .   S
O47        Cu52 1.951       .   S
O43        Cu51 1.951       .   S
O44        Cu51 1.951       .   S
O45        Cu51 1.951       .   S
O46        Cu51 1.951       .   S
O239      Cu247 1.951       .   S
C568       C123 1.105       .   S
C568       C569 1.540       .   A
C567       C568 1.540       .   A
C569       H574 1.140       .   S
C569       C570 1.540       .   A
O232      Cu234 1.951       .   S
O232       C235 1.250       .   A
O230      Cu234 1.951       .   S
O230       C237 1.251       .   A
O231      Cu234 1.951       .   S
O231       C236 1.250       .   A
C56        C448 1.612       .   S
C447       C448 1.540       .   A
C448       C449 1.540       .   A
O144      Cu149 1.951       .   S
Cu149     Cu150 2.630       .   S
O141      Cu149 1.951       .   S
O142      Cu149 1.951       .   S
O143      Cu149 1.951       .   S
C809       C810 1.540       .   A
C809       H814 1.140       .   S
C808       C809 1.540       .   A
C807       C808 1.540       .   A
C322       C808 1.523       .   S
C807       C812 1.540       .   A
C807       H813 1.140       .   S
C801       C333 1.553   1_554   S
C800       C801 1.540       .   A
C801       C802 1.540       .   A
C799       C800 1.540       .   A
C800       H805 1.140       .   S
C797       C802 1.540       .   A
C802       H806 1.140       .   S
C759       C760 1.540       .   A
C760       C761 1.540       .   A
C760       H765 1.140       .   S
C462       H466 1.140       .   S
C459       H464 1.140       .   S
C319       C761 1.557       .   S
C761       C762 1.540       .   A
C337       H343 1.140       .   S
C762       H766 1.140       .   S
C757       C762 1.540       .   A
C340       H345 1.140       .   S
C339       H344 1.140       .   S
O59         C69 1.250       .   A
O59        Cu65 1.951       .   S
O58         C68 1.250       .   A
O58        Cu65 1.951       .   S
O50         C53 1.250       .   A
O57         C67 1.250       .   A
O57        Cu65 1.951       .   S
C479       H484 1.140       .   S
C479       C480 1.540       .   A
C478       C479 1.540       .   A
O283      Cu289 1.951       .   S
O282      Cu289 1.951       .   S
O281      Cu289 1.951       .   S
Cu289     Cu290 2.630       .   S
O284      Cu289 1.951       .   S
C767       C768 1.540       .   A
C767       C772 1.540       .   A
C767       H773 1.140       .   S
O162      Cu164 1.951       .   S
O162       C165 1.250       .   A
C480       C481 1.540       .   A
C481       C482 1.540       .   A
C481        C84 1.522       .   S
O160       C167 1.251       .   A
O160      Cu164 1.951       .   S
O161       C166 1.250       .   A
O161      Cu164 1.951       .   S
C661       C224 1.524   1_565   S
C660       C661 1.540       .   A
C661       C662 1.540       .   A
C659       C660 1.540       .   A
C660       H665 1.140       .   S
C747       C748 1.540       .   A
C748       C749 1.540       .   A
C768       C769 1.540       .   A
C769       C770 1.540       .   A
C769       H774 1.140       .   S
C747       C752 1.540       .   A
C747       H753 1.140       .   S
O169       C179 1.250       .   A
O169      Cu177 1.951       .   S
C737       C742 1.540       .   A
C742       H746 1.140       .   S
C741       C742 1.540       .   A
C668       C193 1.516       .   S
C667       C668 1.540       .   A
C668       C669 1.540       .   A
C740       H745 1.140       .   S
C739       C740 1.540       .   A
C740       C741 1.540       .   A
C251       C741 1.492   1_655   S
C482       H486 1.140       .   S
C487       H493 1.140       .   S
C487       C488 1.540       .   A
C487       C492 1.540       .   A
O260       C263 1.250       .   A
O260      Cu262 1.951       .   S
C759       H764 1.140       .   S
O30         C40 1.250       .   A
O35         C40 1.250       .   A
C40        C431 1.023       .   S
O31         C41 1.250       .   A
C41        C408 1.055       .   S
O34         C41 1.251       .   A
C42        C401 1.485   1_655   S
O33         C42 1.250       .   A
O32         C42 1.250       .   A
C359       C360 1.540       .   A
C358       C359 1.540       .   A
C359       H364 1.140       .   S
C642       H646 1.140       .   S
C639       H644 1.140       .   S
C640       H645 1.140       .   S
C637       H643 1.140       .   S
O75        Cu80 1.951       .   S
O77        Cu80 1.951       .   S
O76        Cu80 1.951       .   S
Cu79       Cu80 2.630       .   S
O78        Cu80 1.951       .   S
C592       H596 1.140       .   S
C591       C592 1.540       .   A
C587       C592 1.540       .   A
C590       C591 1.540       .   A
C591       C126 1.047       .   S
C589       C590 1.540       .   A
C590       H595 1.140       .   S
C597       C602 1.540       .   A
C597       C598 1.540       .   A
C597       H603 1.140       .   S
O211      Cu219 1.951       .   S
O212      Cu219 1.951       .   S
O213      Cu219 1.951       .   S
O214      Cu219 1.951       .   S
Cu219     Cu220 2.630       .   S
C599       C600 1.540       .   A
C598       C599 1.540       .   A
C599       H604 1.140       .   S
C292       C598 1.126       .   S
C610       H615 1.140       .   S
C610       C611 1.540       .   A
C609       C610 1.540       .   A
C357       C358 1.540       .   A
C358        C14 1.561       .   S
C153       C611 1.523       .   S
C611       C612 1.540       .   A
C698       C699 1.540       .   A
C698       C208 1.033       .   S
C697       C698 1.540       .   A
C699       C700 1.540       .   A
C699       H704 1.140       .   S
C348        C13 0.930       .   S
C348       C349 1.540       .   A
C347       C348 1.540       .   A
C349       H354 1.140       .   S
C349       C350 1.540       .   A
C690       C691 1.540       .   A
C689       C690 1.540       .   A
C691       C207 1.489   1_554   S
C691       C692 1.540       .   A
C687       C692 1.540       .   A
C341       C342 1.540       .   A
C340       C341 1.540       .   A
C26        C341 1.520       .   S
C657       C662 1.540       .   A
C662       H666 1.140       .   S
C697       C702 1.540       .   A
C697       H703 1.140       .   S
C492       H496 1.140       .   S
C490       H495 1.140       .   S
C750       C751 1.540       .   A
C751       C752 1.540       .   A
C751       C334 1.075       .   S
C687       H693 1.140       .   S
C750       H755 1.140       .   S
C749       C750 1.540       .   A
C527       C532 1.540       .   A
C527       H533 1.140       .   S
C527       C528 1.540       .   A
C752       H756 1.140       .   S
C517       C522 1.540       .   A
C522       H526 1.140       .   S
C521       C522 1.540       .   A
C519       C520 1.540       .   A
C520       H525 1.140       .   S
C520       C521 1.540       .   A
C305       C521 0.978   1_655   S
C787       H793 1.140       .   S
C789       H794 1.140       .   S
C790       H795 1.140       .   S
C792       H796 1.140       .   S
O270       C280 1.250       .   A
O271       C280 1.250       .   A
C280       C381 1.053       .   S
C449       C450 1.540       .   A
C449       H454 1.140       .   S
C757       C758 1.540       .   A
C757       H763 1.140       .   S
C447       C452 1.540       .   A
C447       H453 1.140       .   S
O7         Cu10 1.951       .   S
O6         Cu10 1.951       .   S
O5         Cu10 1.951       .   S
Cu9        Cu10 2.630       .   S
O8         Cu10 1.951       .   S
C167       C441 0.961   1_545   S
C440       C441 1.540       .   A
C441       C442 1.540       .   A
O102       C112 1.250       .   A
O103       C112 1.250       .   A
C558       C112 1.006       .   S
O101       C111 1.250       .   A
C111       C548 1.515       .   S
O104       C111 1.251       .   A
O100       C110 1.250       .   A
C531       C110 1.571   1_554   S
O105       C110 1.250       .   A
O103      Cu108 1.951       .   S
O104      Cu108 1.951       .   S
O105      Cu108 1.951       .   S
O106      Cu108 1.951       .   S
Cu107     Cu108 2.630       .   S
O88        Cu93 1.951       .   S
O88         C98 1.250       .   A
O89         C98 1.250       .   A
O89        Cu94 1.951       .   S
O85        Cu93 1.951       .   S
O85         C95 1.250       .   A
O86        Cu93 1.951       .   S
O86         C96 1.250       .   A
O87        Cu93 1.951       .   S
O87         C97 1.250       .   A
O100      Cu107 1.951       .   S
O101      Cu107 1.951       .   S
O102      Cu107 1.951       .   S
O99       Cu107 1.951       .   S
O298      Cu303 1.951       .   S
O298       C308 1.250       .   A
O299       C308 1.250       .   A
O299      Cu304 1.951       .   S
C419       H424 1.140       .   S
C420       H425 1.140       .   S
C417       H423 1.140       .   S
C477       H483 1.140       .   S
C382       H386 1.140       .   S
C380       H385 1.140       .   S
C379       H384 1.140       .   S
C377       H383 1.140       .   S
O295      Cu303 1.951       .   S
O295       C305 1.250       .   A
O296       C306 1.250       .   A
O296      Cu303 1.951       .   S
O297      Cu303 1.951       .   S
O297       C307 1.250       .   A
O17        Cu23 1.951       .   S
O17         C27 1.250       .   A
O16         C26 1.250       .   A
O16        Cu23 1.951       .   S
O15        Cu23 1.951       .   S
O15         C25 1.250       .   A
C540       H545 1.140       .   S
C539       H544 1.140       .   S
C542       H546 1.140       .   S
C618       C619 1.540       .   A
C618       C140 1.025       .   S
C617       C618 1.540       .   A
O19        Cu24 1.951       .   S
O19         C28 1.250       .   A
O18         C28 1.250       .   A
O18        Cu23 1.951       .   S
C422       H426 1.140       .   S
O267       C277 1.250       .   A
O267      Cu275 1.951       .   S
C236       C711 1.586       .   S
O226       C236 1.250       .   A
O227       C237 1.250       .   A
C237       C738 1.492       .   S
C235       C428 1.023   1_455   S
O225       C235 1.250       .   A
O229       C238 1.250       .   A
O228       C238 1.250       .   A
C621       C238 1.025   1_554   S
O269       C279 1.250       .   A
O269      Cu275 1.951       .   S
O268       C278 1.250       .   A
O268      Cu275 1.951       .   S
C799       H804 1.140       .   S
O127       C137 1.250       .   A
O127      Cu135 1.951       .   S
O120      Cu122 1.951       .   S
O120       C123 1.250       .   A
C797       H803 1.140       .   S
C619       C620 1.540       .   A
C619       H624 1.140       .   S
O128      Cu135 1.951       .   S
O128       C138 1.250       .   A
O129       C139 1.250       .   A
O129      Cu135 1.951       .   S
C628       C629 1.540       .   A
C629       H634 1.140       .   S
C629       C630 1.540       .   A
C627       C628 1.540       .   A
C154       C628 1.040       .   S
O175      Cu178 1.951       .   S
O174      Cu178 1.951       .   S
Cu177     Cu178 2.630       .   S
O176      Cu178 1.951       .   S
O173      Cu178 1.951       .   S
C632       H636 1.140       .   S
C620       C621 1.540       .   A
C621       C622 1.540       .   A
C659       H664 1.140       .   S
O171      Cu177 1.951       .   S
O170      Cu177 1.951       .   S
O172      Cu177 1.951       .   S
C622       H626 1.140       .   S
C617       C622 1.540       .   A
C630       H635 1.140       .   S
C627       H633 1.140       .   S
C627       C632 1.540       .   A
C450       H455 1.140       .   S
C450       C451 1.540       .   A
O190       C193 1.250       .   A
O190      Cu192 1.951       .   S
O197       C207 1.250       .   A
O197      Cu205 1.951       .   S
O199       C209 1.250       .   A
O199      Cu205 1.951       .   S
O198      Cu205 1.951       .   S
O198       C208 1.250       .   A
C577       H583 1.140       .   S
C457       H463 1.140       .   S
C457       C458 1.540       .   A
C457       C462 1.540       .   A
C717       H723 1.140       .   S
C720       H725 1.140       .   S
C719       H724 1.140       .   S
C722       H726 1.140       .   S
O315      Cu318 1.951       .   S
O314      Cu318 1.951       .   S
O316      Cu318 1.951       .   S
Cu317     Cu318 2.630       .   S
O313      Cu318 1.951       .   S
C717       C718 1.540       .   A
C717       C722 1.540       .   A
C710       C711 1.540       .   A
C711       C712 1.540       .   A
C709       C710 1.540       .   A
C710       H715 1.140       .   S
C497       C498 1.540       .   A
C83        C498 1.040       .   S
C498       C499 1.540       .   A
C707       C712 1.540       .   A
C712       H716 1.140       .   S
C497       C502 1.540       .   A
C497       H503 1.140       .   S
C719       C720 1.540       .   A
C718       C719 1.540       .   A
C308       C718 0.934   1_565   S
O311      Cu317 1.951       .   S
O310      Cu317 1.951       .   S
O312      Cu317 1.951       .   S
C179       C491 1.078       .   S
C491       C492 1.540       .   A
C490       C491 1.540       .   A
C509       C510 1.540       .   A
C510       C511 1.540       .   A
C657       C658 1.540       .   A
C658       C180 1.524       .   S
C658       C659 1.540       .   A
C306       C791 1.535   1_565   S
C307       C798 1.553       .   S
C650       H655 1.140       .   S
C650       C651 1.540       .   A
C649       C650 1.540       .   A
C651       C652 1.540       .   A
C266       C651 0.995       .   S
C647       C652 1.540       .   A
C652       H656 1.140       .   S
C347       H353 1.140       .   S
C347       C352 1.540       .   A
C609       H614 1.140       .   S
C612       H616 1.140       .   S
C607       H613 1.140       .   S
C589       H594 1.140       .   S
C587       H593 1.140       .   S
O36         C39 1.250       .   A
C39        C418 1.528       .   S
O218      Cu220 1.951       .   S
O215      Cu220 1.951       .   S
O216      Cu220 1.951       .   S
O217      Cu220 1.951       .   S
C749       H754 1.140       .   S
O146       C153 1.251       .   A
O143       C153 1.250       .   A
O147       C152 1.250       .   A
C152       C638 1.606       .   S
O142       C152 1.250       .   A
C511       C151 1.103       .   S
O148       C151 1.250       .   A
O141       C151 1.250       .   A
C401       C402 1.540       .   A
C402       H406 1.140       .   S
C397       C402 1.540       .   A
C407       H413 1.140       .   S
C407       C408 1.540       .   A
C407       C412 1.540       .   A
O144       C154 1.250       .   A
O145       C154 1.250       .   A
C408       C409 1.540       .   A
C409       C410 1.540       .   A
C409       H414 1.140       .   S
C429       C430 1.540       .   A
C428       C429 1.540       .   A
C429       H434 1.140       .   S
C390       C391 1.540       .   A
C391       C392 1.540       .   A
C25        C391 1.127       .   S
C390       H395 1.140       .   S
C389       C390 1.540       .   A
C427       C428 1.540       .   A
C397       C398 1.540       .   A
C397       H403 1.140       .   S
C398       C399 1.540       .   A
C399       H404 1.140       .   S
C399       C400 1.540       .   A
C27        C398 1.485       .   S
O258      Cu262 1.951       .   S
O258       C265 1.251       .   A
O259      Cu262 1.951       .   S
O259       C264 1.250       .   A
O254      Cu261 1.951       .   S
O254       C264 1.250       .   A
O255      Cu261 1.951       .   S
O255       C265 1.250       .   A
O256      Cu261 1.951       .   S
O256       C266 1.250       .   A
O257      Cu262 1.951       .   S
O257       C266 1.250       .   A
O253      Cu261 1.951       .   S
O253       C263 1.250       .   A
C500       H505 1.140       .   S
C499       H504 1.140       .   S
C502       H506 1.140       .   S
C421       C422 1.540       .   A
C420       C421 1.540       .   A
C53        C421 1.528   1_565   S
C277       C681 1.002   1_545   S
O274       C277 1.250       .   A
C419       C420 1.540       .   A
C460       H465 1.140       .   S
O273       C278 1.250       .   A
C771       C278 1.549       .   S
O272       C279 1.251       .   A
C279       C778 1.478       .   S
O229      Cu234 1.951       .   S
O228      Cu233 1.951       .   S
C477       C482 1.540       .   A
C477       C478 1.540       .   A
O62        Cu66 1.951       .   S
O63        Cu66 1.951       .   S
O61        Cu66 1.951       .   S
O64        Cu66 1.951       .   S
Cu65       Cu66 2.630       .   S
C577       C578 1.540       .   A
C578       C579 1.540       .   A
C124       C578 1.615       .   S
C467       C472 1.540       .   A
C472       H476 1.140       .   S
C471       C472 1.540       .   A
O60        Cu65 1.951       .   S
C577       C582 1.540       .   A
O225      Cu233 1.951       .   S
C570       H575 1.140       .   S
C570       C571 1.540       .   A
O227      Cu233 1.951       .   S
O226      Cu233 1.951       .   S
O130      Cu135 1.951       .   S
Cu135     Cu136 2.630       .   S
O131      Cu136 1.951       .   S
O133      Cu136 1.951       .   S
O132      Cu136 1.951       .   S
O134      Cu136 1.951       .   S
C342       H346 1.140       .   S
C372       H376 1.140       .   S
C369       H374 1.140       .   S
C370       H375 1.140       .   S
C367       H373 1.140       .   S
C572       H576 1.140       .   S
C567       H573 1.140       .   S
C470       H475 1.140       .   S
C469       H474 1.140       .   S
C467       H473 1.140       .   S
O315       C320 1.250       .   A
O49         C54 1.250       .   A
O316       C319 1.250       .   A
O311       C321 1.250       .   A
O310       C320 1.250       .   A
O313       C322 1.250       .   A
O312       C322 1.250       .   A
O43         C53 1.250       .   A
O44         C54 1.250       .   A
O45         C55 1.250       .   A
O46         C56 1.250       .   A
O47         C56 1.250       .   A
C547       H553 1.140       .   S
C758       C759 1.540       .   A
C758       C265 1.557       .   S
C607       C612 1.540       .   A
C617       H623 1.140       .   S
O175       C180 1.250       .   A
O174       C181 1.251       .   A
O176       C179 1.250       .   A
O171       C181 1.250       .   A
O170       C180 1.250       .   A
O173       C182 1.250       .   A
O172       C182 1.250       .   A
C367       C368 1.540       .   A
C367       C372 1.540       .   A
C700       H705 1.140       .   S
C549       H554 1.140       .   S
C707       H713 1.140       .   S
C709       H714 1.140       .   S
O60         C70 1.250       .   A
O61         C70 1.250       .   A
C70        C478 1.522       .   S
C647       H653 1.140       .   S
C499       C500 1.540       .   A
C649       H654 1.140       .   S
Cu93       Cu94 2.630       .   S
O92        Cu94 1.951       .   S
O91        Cu94 1.951       .   S
O90        Cu94 1.951       .   S
Cu261     Cu262 2.630       .   S
C357       H363 1.140       .   S
C357       C362 1.540       .   A
C727       C728 1.540       .   A
C221       C728 1.533       .   S
C728       C729 1.540       .   A
C729       H734 1.140       .   S
C729       C730 1.540       .   A
C667       C672 1.540       .   A
C667       H673 1.140       .   S
C351       C352 1.540       .   A
C352       H356 1.140       .   S
C727       C732 1.540       .   A
C727       H733 1.140       .   S
C720       C721 1.540       .   A
C721       C722 1.540       .   A
C222       C721 0.934       .   S
C688       C689 1.540       .   A
C688       C196 1.489       .   S
C687       C688 1.540       .   A
O288      Cu290 1.951       .   S
O287      Cu290 1.951       .   S
O286      Cu290 1.951       .   S
O285      Cu290 1.951       .   S
C489       C490 1.540       .   A
C681       C682 1.540       .   A
C682       H686 1.140       .   S
C677       C682 1.540       .   A
C680       C681 1.540       .   A
C679       C680 1.540       .   A
C680       H685 1.140       .   S
C677       H683 1.140       .   S
C458       C459 1.540       .   A
C54        C458 0.920       .   S
C530       C531 1.540       .   A
C531       C532 1.540       .   A
C530       H535 1.140       .   S
C529       C530 1.540       .   A
Cu23       Cu24 2.630       .   S
C532       H536 1.140       .   S
C537       C538 1.540       .   A
C537       H543 1.140       .   S
C537       C542 1.540       .   A
C459       C460 1.540       .   A
C777       H783 1.140       .   S
C782       H786 1.140       .   S
C780       H785 1.140       .   S
C779       H784 1.140       .   S
C438       C439 1.540       .   A
C55        C438 0.961       .   S
C437       C438 1.540       .   A
C517       H523 1.140       .   S
C430       C431 1.540       .   A
C430       H435 1.140       .   S
O113       C123 1.250       .   A
C431       C432 1.540       .   A
C427       C432 1.540       .   A
C432       H436 1.140       .   S
O117       C126 1.250       .   A
O116       C126 1.250       .   A
O119       C124 1.250       .   A
O114       C124 1.250       .   A
O118       C125 1.251       .   A
C125       C551 1.515   1_655   S
O115       C125 1.250       .   A
C657       H663 1.140       .   S
O328      Cu332 1.951       .   S
O328       C335 1.251       .   A
O329      Cu332 1.951       .   S
O329       C334 1.250       .   A
O324      Cu331 1.951       .   S
O324       C334 1.250       .   A
O325       C335 1.250       .   A
O325      Cu331 1.951       .   S
O326       C336 1.250       .   A
O326      Cu331 1.951       .   S
O327      Cu332 1.951       .   S
O327       C336 1.250       .   A
O323       C333 1.250       .   A
O323      Cu331 1.951       .   S
C427       H433 1.140       .   S
O288       C291 1.250       .   A
C350       C351 1.540       .   A
C350       H355 1.140       .   S
O283       C293 1.250       .   A
O282       C292 1.250       .   A
O281       C291 1.250       .   A
C519       H524 1.140       .   S
O287       C292 1.250       .   A
O286       C293 1.251       .   A
O285       C294 1.250       .   A
O284       C294 1.250       .   A
C557       H563 1.140       .   S
C557       C558 1.540       .   A
C518        C97 0.978       .   S
O90         C97 1.251       .   A
C96        C371 0.978       .   S
O91         C96 1.250       .   A
O92         C95 1.250       .   A
C528        C95 1.571       .   S
C669       C670 1.540       .   A
C669       H674 1.140       .   S
C98        C541 1.554       .   S
C529       H534 1.140       .   S
O211       C221 1.250       .   A
O212       C222 1.250       .   A
O213       C223 1.250       .   A
O214       C224 1.250       .   A
O215       C224 1.250       .   A
O216       C223 1.251       .   A
O217       C222 1.250       .   A
O218       C221 1.250       .   A
C548       C549 1.540       .   A
C549       C550 1.540       .   A
C223       C351 0.930   1_655   S
O131       C140 1.250       .   A
O130       C140 1.250       .   A
O133       C138 1.250       .   A
O132       C139 1.251       .   A
O134       C137 1.250       .   A
C550       C551 1.540       .   A
C550       H555 1.140       .   S
C338       C339 1.540       .   A
C337       C338 1.540       .   A
C338        C11 1.520       .   S
Cu163     Cu164 2.630       .   S
O159      Cu164 1.951       .   S
O157      Cu163 1.951       .   S
O156      Cu163 1.951       .   S
O155      Cu163 1.951       .   S
O158      Cu163 1.951       .   S
C439       H444 1.140       .   S
C440       H445 1.140       .   S
C442       H446 1.140       .   S
C437       H443 1.140       .   S
O145      Cu150 1.951       .   S
O146      Cu150 1.951       .   S
O147      Cu150 1.951       .   S
C768       C264 1.549       .   S
Cu303     Cu304 2.630       .   S
O148      Cu150 1.951       .   S
C467       C468 1.540       .   A
C648       C649 1.540       .   A
C647       C648 1.540       .   A
C166       C648 0.995       .   S
C631       C632 1.540       .   A
C637       C642 1.540       .   A
C641       C642 1.540       .   A
C168       C641 1.606       .   S
C640       C641 1.540       .   A
C639       C640 1.540       .   A
C630       C631 1.540       .   A
C252       C631 1.040       .   S
C28        C378 1.053       .   S
C580       H585 1.140       .   S
C579       H584 1.140       .   S
C582       H586 1.140       .   S
Cu233     Cu234 2.630       .   S
C739       H744 1.140       .   S
C737       H743 1.140       .   S
O159       C168 1.250       .   A
O158       C168 1.250       .   A
O156       C166 1.250       .   A
O157       C167 1.250       .   A
C165       C581 1.615   1_545   S
O155       C165 1.250       .   A
C538       C539 1.540       .   A
C539       C540 1.540       .   A
C12        C368 0.978       .   S
C368       C369 1.540       .   A
C369       C370 1.540       .   A
C538       C138 1.554       .   S
C321       C468 1.040       .   S
C468       C469 1.540       .   A
C360       H365 1.140       .   S
C360       C361 1.540       .   A
C67        C361 1.561       .   S
C361       C362 1.540       .   A
C362       H366 1.140       .   S
C181       C671 1.516       .   S
C182       C588 1.047       .   S
O246      Cu248 1.951       .   S
O245       C250 1.250       .   A
O245      Cu248 1.951       .   S
O244       C251 1.251       .   A
O244      Cu248 1.951       .   S
O243       C252 1.250       .   A
O243      Cu248 1.951       .   S
O242      Cu247 1.951       .   S
O242       C252 1.250       .   A
O241      Cu247 1.951       .   S
O241       C251 1.250       .   A
O240      Cu247 1.951       .   S
O240       C250 1.250       .   A
C263       C701 1.033       .   S
C508       C509 1.540       .   A
C508        C82 1.103       .   S
C507       C508 1.540       .   A
O74        Cu79 1.951       .   S
O71        Cu79 1.951       .   S
O73        Cu79 1.951       .   S
O72        Cu79 1.951       .   S
C461       C462 1.540       .   A
C461       C209 0.920       .   S
C460       C461 1.540       .   A
C500       C501 1.540       .   A
C501       C502 1.540       .   A
C501       C335 1.040   1_554   S
C469       C470 1.540       .   A
C507       C512 1.540       .   A
O119      Cu122 1.951       .   S
O118      Cu122 1.951       .   S
O117      Cu122 1.951       .   S
Cu121     Cu122 2.630       .   S
C400       C401 1.540       .   A
O113      Cu121 1.951       .   S
O116      Cu121 1.951       .   S
O115      Cu121 1.951       .   S
O114      Cu121 1.951       .   S
C400       H405 1.140       .   S
C560       H565 1.140       .   S
C559       H564 1.140       .   S
O201       C210 1.250       .   A
O200       C210 1.250       .   A
C210       C708 1.586       .   S
O78         C81 1.250       .   A
O75         C84 1.250       .   A
O74         C84 1.250       .   A
O77         C82 1.250       .   A
O76         C83 1.251       .   A
O71         C81 1.250       .   A
O73         C83 1.250       .   A
O72         C82 1.250       .   A
C439       C440 1.540       .   A
C602       H606 1.140       .   S
C601       C602 1.540       .   A
C601       C137 1.126       .   S
C600       C601 1.540       .   A
C600       H605 1.140       .   S
C771       C772 1.540       .   A
C770       C771 1.540       .   A
O188      Cu192 1.951       .   S
O189      Cu192 1.951       .   S
Cu191     Cu192 2.630       .   S
O187      Cu192 1.951       .   S
O183      Cu191 1.951       .   S
O184      Cu191 1.951       .   S
O185      Cu191 1.951       .   S
O186      Cu191 1.951       .   S
O106       C109 1.250       .   A
C387       C392 1.540       .   A
C392       H396 1.140       .   S
C702       H706 1.140       .   S
O63         C68 1.250       .   A
C68        C488 1.078       .   S
O62         C69 1.251       .   A
C69        C471 1.040       .   S
O64         C67 1.250       .   A
C567       C572 1.540       .   A
O272      Cu276 1.951       .   S
O273      Cu276 1.951       .   S
O271      Cu276 1.951       .   S
O274      Cu276 1.951       .   S
Cu275     Cu276 2.630       .   S
O270      Cu275 1.951       .   S
C320       C571 1.105   1_455   S
O314       C321 1.251       .   A
C738       C739 1.540       .   A
C737       C738 1.540       .   A
C732       H736 1.140       .   S
C731       C732 1.540       .   A
C250       C731 1.533       .   S
C730       C731 1.540       .   A
C730       H735 1.140       .   S
O6          C13 1.251       .   A
O3          C13 1.250       .   A
O7          C12 1.250       .   A
O2          C12 1.250       .   A
O1          C11 1.250       .   A
O8          C11 1.250       .   A
O5          C14 1.250       .   A
O4          C14 1.250       .   A
O31        Cu37 1.951       .   S
O30        Cu37 1.951       .   S
O32        Cu37 1.951       .   S
Cu37       Cu38 2.630       .   S
O33        Cu38 1.951       .   S
O35        Cu38 1.951       .   S
O34        Cu38 1.951       .   S
O36        Cu38 1.951       .   S
C559       C560 1.540       .   A
C608       C139 1.523       .   S
C781       C782 1.540       .   A
C777       C782 1.540       .   A
C779       C780 1.540       .   A
C780       C781 1.540       .   A
C294       C781 1.478       .   S
C787       C788 1.540       .   A
C787       C792 1.540       .   A
C417       C422 1.540       .   A
C788       C789 1.540       .   A
C291       C788 1.535       .   S
C789       C790 1.540       .   A
O330       C333 1.250       .   A
O330      Cu332 1.951       .   S
C337       C342 1.540       .   A
C339       C340 1.540       .   A
C451        C81 1.612   1_556   S
C679       H684 1.140       .   S
C772       H776 1.140       .   S
O203      Cu206 1.951       .   S
O203       C208 1.250       .   A
O202      Cu206 1.951       .   S
O202       C209 1.251       .   A
O201      Cu206 1.951       .   S
O200      Cu205 1.951       .   S
C547       C552 1.540       .   A
C552       H556 1.140       .   S
C551       C552 1.540       .   A
O204       C207 1.250       .   A
O204      Cu206 1.951       .   S
C558       C559 1.540       .   A
C812       H816 1.140       .   S
C811       C812 1.540       .   A
C810       H815 1.140       .   S
C810       C811 1.540       .   A
C811       C336 1.523   1_455   S
O4          Cu9 1.951       .   S
O3          Cu9 1.951       .   S
O2          Cu9 1.951       .   S
O1          Cu9 1.951       .   S
C452       H456 1.140       .   S
C489       H494 1.140       .   S
C547       C548 1.540       .   A
C540       C541 1.540       .   A
C541       C542 1.540       .   A
Cu331     Cu332 2.630       .   S
C770       H775 1.140       .   S
C777       C778 1.540       .   A
C778       C779 1.540       .   A
C195       C678 1.002       .   S
C678       C679 1.540       .   A
C677       C678 1.540       .   A
C671       C672 1.540       .   A
C672       H676 1.140       .   S
C670       C671 1.540       .   A
C670       H675 1.140       .   S
C607       C608 1.540       .   A
C580       C581 1.540       .   A
C579       C580 1.540       .   A
C581       C582 1.540       .   A
Cu205     Cu206 2.630       .   S
C587       C588 1.540       .   A
C588       C589 1.540       .   A
C608       C609 1.540       .   A
C379       C380 1.540       .   A
C378       C379 1.540       .   A
C377       C378 1.540       .   A
C377       C382 1.540       .   A
C371       C372 1.540       .   A
C370       C371 1.540       .   A
C470       C471 1.540       .   A
O186       C196 1.250       .   A
O187       C196 1.250       .   A
O188       C195 1.251       .   A
O185       C195 1.250       .   A
O189       C194 1.250       .   A
O184       C194 1.250       .   A
O183       C193 1.250       .   A
C480       H485 1.140       .   S
C488       C489 1.540       .   A
C451       C452 1.540       .   A
C571       C572 1.540       .   A
C293       C411 1.055   1_554   S
C518       C519 1.540       .   A
C517       C518 1.540       .   A
C109       C388 1.127   1_565   S
O99        C109 1.250       .   A
C511       C512 1.540       .   A
C437       C442 1.540       .   A
C528       C529 1.540       .   A
C389       H394 1.140       .   S
C387       H393 1.140       .   S
C412       H416 1.140       .   S
C410       H415 1.140       .   S
C637       C638 1.540       .   A
C638       C639 1.540       .   A
Cu247     Cu248 2.630       .   S
C708       C709 1.540       .   A
C707       C708 1.540       .   A
C701       C702 1.540       .   A
C700       C701 1.540       .   A
C381       C382 1.540       .   A
C417       C418 1.540       .   A
C411       C412 1.540       .   A
C410       C411 1.540       .   A
C418       C419 1.540       .   A
C387       C388 1.540       .   A
C798       C799 1.540       .   A
C797       C798 1.540       .   A
C380       C381 1.540       .   A
C388       C389 1.540       .   A
C790       C791 1.540       .   A
C791       C792 1.540       .   A
