data_nfc_v1-4c_Cu_1_Ch_1B_4H_Ch
_audit_creation_date              2020-02-03
_audit_creation_method            'tobacco_3.0'
_symmetry_space_group_name_H-M    'P1'
_symmetry_Int_Tables_number       1
_symmetry_cell_setting            triclinic
loop_
_symmetry_equiv_pos_as_xyz
  x,y,z
_cell_length_a                    27.36186998128116
_cell_length_b                    27.35844551150464
_cell_length_c                    19.540712324706366
_cell_angle_alpha                 90.01105628907173
_cell_angle_beta                  90.00386015822501
_cell_angle_gamma                 89.99539825326572
loop_
_atom_site_label
_atom_site_type_symbol
_atom_site_fract_x
_atom_site_fract_y
_atom_site_fract_z
O1         O    0.0770713147    0.5208147876   -0.0244885628
O2         O   -0.0188911045    0.4224258534    0.0244770099
O3         O    0.0168664713    0.4590909289   -0.0962314507
O4         O    0.0413111372    0.4841470321    0.0962286948
O5         O   -0.0168690730    0.5409063912    0.0962402477
O6         O   -0.0413092574    0.5158546926   -0.0962146673
O7         O   -0.0770713147    0.4791852124    0.0244885628
O8         O    0.0188911045    0.5775741466   -0.0244770099
Cu9       Cu    0.0343966749    0.4664379010   -0.0000063406
Cu10      Cu   -0.0343966749    0.5335620990    0.0000063406
C11        C    0.0621296593    0.5637022100   -0.0317038050
C12        C   -0.0621296593    0.4362977900    0.0317038050
C13        C   -0.0158197419    0.4837798479   -0.1245977886
C14        C    0.0158197419    0.5162201521    0.1245977886
O15        O   -0.0205076116    0.5779455263    0.4766061467
O16        O    0.0776626344    0.4814043533    0.5242625219
O17        O    0.0407192829    0.5177313838    0.4040444142
O18        O    0.0164384401    0.5416158525    0.5968330156
O19        O   -0.0405409006    0.4836599193    0.5968136957
O20        O   -0.0162644259    0.4597799324    0.4040303844
O21        O    0.0206832937    0.4234484200    0.5242432019
O22        O   -0.0774869524    0.5199895931    0.4765868267
Cu23      Cu    0.0337799962    0.5349610297    0.5004365503
Cu24      Cu   -0.0336043142    0.4664329167    0.5004127983
C25        C   -0.0634727877    0.5632013513    0.4695685028
C26        C    0.0636484697    0.4381925950    0.5312808458
C27        C    0.0158061153    0.4852399051    0.3756142906
C28        C   -0.0156304333    0.5161540412    0.6252350580
O29        O    0.5238161012    0.5766623775    0.5397315240
O30        O    0.4267974705    0.4794180003    0.4902957889
O31        O    0.4628447274    0.5155458436    0.6111791902
O32        O    0.4877662093    0.5405319054    0.4188393129
O33        O    0.5452998104    0.4831170523    0.4188275239
O34        O    0.5203826770    0.4581355373    0.6111621922
O35        O    0.4843310715    0.4220031473    0.4902839999
O36        O    0.5813497023    0.5192475245    0.5397197350
Cu37      Cu    0.4700537500    0.5332768780    0.5150142288
Cu38      Cu    0.5380934227    0.4653886468    0.5150012950
C39        C    0.5668886086    0.5622924283    0.5470159714
C40        C    0.4412585642    0.4363730965    0.4829995524
C41        C    0.4879405112    0.4831625378    0.6395277055
C42        C    0.5202066615    0.5155029870    0.3904878183
O43        O    0.5217880286    0.4225181274   -0.0090504729
O44        O    0.4248346332    0.5203846289    0.0382238079
O45        O    0.4614310810    0.4834468311   -0.0818502970
O46        O    0.4851889058    0.4594586131    0.1110323827
O47        O    0.5429199100    0.5166656492    0.1110550000
O48        O    0.5191663886    0.5406493345   -0.0818223723
O49        O    0.4825656374    0.5775916650    0.0382464252
O50        O    0.5795190328    0.4797251636   -0.0090278556
Cu51      Cu    0.4680402878    0.4662336662    0.0145850457
Cu52      Cu    0.5363133782    0.5338761263    0.0146109066
C53        C    0.5649496286    0.4366924290   -0.0160108095
C54        C    0.4394040374    0.5634173635    0.0452067618
C55        C    0.4867970845    0.5155791182   -0.1102733022
C56        C    0.5175565815    0.4845306743    0.1394692544
O57        O    0.7720930903    0.1730196039    0.7342653856
O58        O    0.6740880255    0.2690492420    0.7845746468
O59        O    0.7102589978    0.2336105923    0.6633678479
O60        O    0.7359194741    0.2084608321    0.8554810179
O61        O    0.7927935933    0.2665200525    0.8555037696
O62        O    0.7671375294    0.2916653031    0.6633957684
O63        O    0.7309621447    0.3271084623    0.7845973985
O64        O    0.8289672095    0.2310788243    0.7342881373
Cu65      Cu    0.7178976736    0.2157388991    0.7594184682
Cu66      Cu    0.7851575614    0.2843891672    0.7594443159
C67        C    0.8149812902    0.1878908560    0.7268576224
C68        C    0.6880739448    0.3122372103    0.7920051618
C69        C    0.7349161851    0.2663402467    0.6350581875
C70        C    0.7681390499    0.2337878195    0.8838045967
O71        O    0.8305155360    0.2679480449    0.2318398626
O72        O    0.7338503349    0.1701677485    0.2804841588
O73        O    0.7699556984    0.2066929202    0.1598955924
O74        O    0.7944075454    0.2314202036    0.3524372172
O75        O    0.7366116649    0.2885709620    0.3524489137
O76        O    0.7121643247    0.2638480485    0.1599125341
O77        O    0.6760544545    0.2273185070    0.2804958553
O78        O    0.7727196555    0.3250988034    0.2318515591
Cu79      Cu    0.7874544137    0.2138397777    0.2561614243
Cu80      Cu    0.7191155768    0.2814267743    0.2561742936
C81        C    0.8158696735    0.3109414325    0.2246720629
C82        C    0.6907003169    0.1843251195    0.2876636549
C83        C    0.7374606113    0.2316259624    0.1315173319
C84        C    0.7691093792    0.2636405896    0.3808183860
O85        O    0.7705921829    0.8314274414    0.7840803789
O86        O    0.6741734670    0.7328666724    0.7375404149
O87        O    0.7107672756    0.7702701133    0.8573366503
O88        O    0.7339956995    0.7940212787    0.6642754131
O89        O    0.7920903620    0.7371743402    0.6642638163
O90        O    0.7688662022    0.7134277236    0.8573197127
O91        O    0.7322681295    0.6760197339    0.7375288181
O92        O    0.8286868454    0.7745805029    0.7840687821
Cu93      Cu    0.7170786126    0.7873318900    0.7608110338
Cu94      Cu    0.7857816997    0.7201152853    0.7607981632
C95        C    0.8138567832    0.8175355625    0.7909379543
C96        C    0.6890035291    0.6899116128    0.7306712427
C97        C    0.7363931032    0.7383528381    0.8857914487
C98        C    0.7664672092    0.7690943372    0.6358177483
O99        O    0.7297864363    0.8295724050    0.2349712516
O100       O    0.8269004990    0.7320173543    0.2828225172
O101       O    0.7904067874    0.7686734783    0.1625311150
O102       O    0.7662828153    0.7929136138    0.3552714204
O103       O    0.7086905143    0.7355669079    0.3552522063
O104       O    0.7328101635    0.7113313032    0.1625171821
O105       O    0.7693081979    0.6746706485    0.2828033030
O106       O    0.6721941352    0.7722256992    0.2349520375
Cu107     Cu    0.7836018593    0.7860253448    0.2588990963
Cu108     Cu    0.7154927749    0.7182177088    0.2588754583
C109       C    0.6866705020    0.8152823428    0.2279049250
C110       C    0.8124241322    0.6889607108    0.2898696297
C111       C    0.7651640939    0.7364342124    0.1341081536
C112       C    0.7339305403    0.7678088411    0.3836664011
O113       O    0.4830496780    0.9210679743    0.5263618824
O114       O    0.5815995063    1.0171731803    0.4785955521
O115       O    0.5445481595    0.9810441830    0.5988550257
O116       O    0.5201037329    0.9571996004    0.4060936446
O117       O    0.4633630410    1.0153983719    0.4061023027
O118       O    0.4878030794    1.0392384895    0.5988583986
O119       O    0.5248588144    1.0753719518    0.4786042102
O120       O    0.4263089861    0.9792667458    0.5263705405
Cu121     Cu    0.5375053099    0.9638123149    0.5024774711
Cu122     Cu    0.4704031825    1.0326276112    0.5024886215
C123       C    0.4401478623    0.9359978534    0.5334104076
C124       C    0.5677606301    1.0604420727    0.4715556850
C125       C    0.5197784008    1.0136512134    0.6272758118
C126       C    0.4881300916    0.9827887127    0.3776902808
O127       O    0.4799003462    0.0814335805   -0.0193461215
O128       O    0.5762538583   -0.0165572693    0.0297570990
O129       O    0.5403790614    0.0199238336   -0.0910026413
O130       O    0.5157777656    0.0449498230    0.1014224195
O131       O    0.4578333198   -0.0120409560    0.1014032621
O132       O    0.4824303035   -0.0370623707   -0.0910165744
O133       O    0.5183094125   -0.0735480483    0.0297379416
O134       O    0.4219559004    0.0244428015   -0.0193652789
Cu135     Cu    0.5333676106    0.0376361249    0.0052077310
Cu136     Cu    0.4648421481   -0.0297505927    0.0051840891
C137       C    0.4367204788    0.0673857387   -0.0265970148
C138       C    0.5614892799   -0.0595002065    0.0369888349
C139       C    0.5150307079   -0.0122533005   -0.1193791684
C140       C    0.4831790508    0.0201388327    0.1297709885
O141       O    0.2683934941    0.6794750989    0.2261479352
O142       O    0.1718667246    0.7779528973    0.2726390636
O143       O    0.2085096355    0.7405726866    0.1528613621
O144       O    0.2317479049    0.7168580297    0.3459343658
O145       O    0.2897823166    0.7737571701    0.3459569323
O146       O    0.2665483157    0.7974672824    0.1528892715
O147       O    0.2299011363    0.8348520376    0.2726616301
O148       O    0.3264279058    0.7363742392    0.2261705017
Cu149     Cu    0.2148313924    0.7235243988    0.2493918601
Cu150     Cu    0.2834632381    0.7908027376    0.2494177052
C151       C    0.3116439004    0.6934053129    0.2193030455
C152       C    0.1866507301    0.8209218236    0.2795065198
C153       C    0.2341038943    0.7725106831    0.1244103161
C154       C    0.2641907361    0.7418164533    0.3743992492
O155       O    0.2281294735    0.6780938411    0.7728932023
O156       O    0.3259775004    0.7748308230    0.7247993319
O157       O    0.2892783236    0.7385516335    0.8451818279
O158       O    0.2648313327    0.7143756703    0.6525019331
O159       O    0.2076935229    0.7721845159    0.6525104499
O160       O    0.2321361517    0.7963559797    0.8451850745
O161       O    0.2688396907    0.8326396685    0.7248078487
O162       O    0.1709916637    0.7359026866    0.7729017192
Cu163     Cu    0.2822704250    0.7211896714    0.7488450245
Cu164     Cu    0.2146987392    0.7895438382    0.7488560265
C165       C    0.1851325721    0.6927356007    0.7799899512
C166       C    0.3118365920    0.8179979089    0.7177110998
C167       C    0.2643104353    0.7710125323    0.8735905484
C168       C    0.2326587288    0.7397209773    0.6241105026
O169       O    0.2759833761    0.3335230929    0.2763265555
O170       O    0.1778856248    0.2375894895    0.2260528087
O171       O    0.2141055298    0.2730070978    0.3472465024
O172       O    0.2397608236    0.2981029076    0.1551240294
O173       O    0.2965832109    0.2399839164    0.1551119872
O174       O    0.2709323329    0.2148926108    0.3472292897
O175       O    0.2347080121    0.1794704983    0.2260407665
O176       O    0.3328057634    0.2754041017    0.2763145133
Cu177     Cu    0.2217463345    0.2908572723    0.2511902538
Cu178     Cu    0.2889450537    0.2221363189    0.2511770682
C179       C    0.3188593757    0.3186077950    0.2837344372
C180       C    0.1918320125    0.1943857962    0.2186328848
C181       C    0.2387376219    0.2402555081    0.3755628866
C182       C    0.2719537663    0.2727380831    0.1268044354
O183       O    0.2347219950    0.3325923605    0.7270004818
O184       O    0.3321416707    0.2356121077    0.7759120027
O185       O    0.2958181756    0.2717684802    0.6552236937
O186       O    0.2710481452    0.2964333571    0.8476975863
O187       O    0.2137159737    0.2388265224    0.8476783213
O188       O    0.2384816461    0.2141661712    0.6552096616
O189       O    0.2748094992    0.1780052729    0.7758927376
O190       O    0.1773898236    0.2749855257    0.7269812168
Cu191     Cu    0.2886664973    0.2893564513    0.7514584889
Cu192     Cu    0.2208649969    0.2212411822    0.7514347306
C193       C    0.1916910713    0.3180874755    0.7197777999
C194       C    0.3178404229    0.1925101579    0.7831154195
C195       C    0.2708007535    0.2393365223    0.6268399244
C196       C    0.2387307408    0.2712611111    0.8760532951
O197       O    0.0229160645    0.0866091460    1.0203473324
O198       O   -0.0745853797   -0.0106736084    0.9729663316
O199       O   -0.0378058070    0.0260201746    1.0930806986
O200       O   -0.0138661965    0.0499126930    0.9002242118
O201       O    0.0435361035   -0.0076334651    0.9002123648
O202       O    0.0196008237   -0.0315214751    1.0930635490
O203       O   -0.0171830796   -0.0682197666    0.9729544846
O204       O    0.0803183645    0.0290629879    1.0203354854
Cu205     Cu   -0.0310757203    0.0432164441    0.9966574679
Cu206     Cu    0.0368087051   -0.0248270646    0.9966443491
C207       C    0.0659941150    0.0721792079    1.0273287897
C208       C   -0.0602611302   -0.0537898284    0.9659730273
C209       C   -0.0126309110   -0.0062675825    1.1215052328
C210       C    0.0183638958    0.0246569620    0.8717965842
O211       O    0.0224721024   -0.0671558495    0.4713103905
O212       O   -0.0751131424    0.0295062630    0.5208394321
O213       O   -0.0388856255   -0.0063752812    0.3999213872
O214       O   -0.0137580626   -0.0312716945    0.5922372476
O215       O    0.0434303768    0.0264778669    0.5922599492
O216       O    0.0183071911    0.0513697574    0.3999492935
O217       O   -0.0179247030    0.0872558244    0.5208621337
O218       O    0.0796605417   -0.0094062881    0.4713330920
Cu219     Cu   -0.0315420741   -0.0240920428    0.4960733457
Cu220     Cu    0.0360894735    0.0441920176    0.4960991785
C221       C    0.0654555686   -0.0525326891    0.4640176419
C222       C   -0.0609081692    0.0726326639    0.5281548823
C223       C   -0.0139927576    0.0261621799    0.3715818633
C224       C    0.0185401569   -0.0060622050    0.6205906609
C535       C   -0.0064492333   -0.0272768352    0.7948928741
C536       C    0.0183975194    0.0187969706    0.8238765174
C537       C    0.0432987791    0.0553711842    0.7751772658
C538       C    0.0433532861    0.0458715921    0.6974943710
C539       C    0.0185065333   -0.0002022137    0.6685107277
C540       C   -0.0063947264   -0.0367764273    0.7172099793
H541       H   -0.0248826334   -0.0543512530    0.8309429694
H542       H    0.0616910453    0.0894760090    0.7966293144
H543       H    0.0617866862    0.0729460100    0.6614442757
H544       H   -0.0247869925   -0.0708812521    0.6957579307
C525       C   -0.0383030691    0.0459426252    1.1970845205
C526       C   -0.0128895546   -0.0001084816    1.1690000983
C527       C    0.0121016802   -0.0361038081    1.2184591258
C528       C    0.0116794005   -0.0260480278    1.2960025756
C529       C   -0.0137341140    0.0200030790    1.3240869978
C530       C   -0.0387253488    0.0559984055    1.2746279703
H531       H   -0.0568030741    0.0725885163    1.1604719936
H532       H    0.0309134643   -0.0701918128    1.1976727016
H533       H    0.0301794055   -0.0526939188    1.3326151025
H534       H   -0.0575371328    0.0900864102    1.2954143945
C515       C    0.1797089764    0.1147260514    0.1448269128
C516       C    0.1607710320    0.1642211437    0.1714126682
C517       C    0.1099751194    0.1827775942    0.1495665927
C518       C    0.0781171512    0.1518389526    0.1011347617
C519       C    0.0970550955    0.1023438604    0.0745490062
C520       C    0.1478510081    0.0837874098    0.0963950818
H521       H    0.2173111454    0.1009894582    0.1609986830
H522       H    0.0959557128    0.2194142729    0.1692445830
H523       H    0.0405149821    0.1655755459    0.0849629915
H524       H    0.1618704148    0.0471507312    0.0767170914
C505       C    0.2146785272    0.2866655767    0.0519013807
C506       C    0.2656088136    0.2724560101    0.0789158369
C507       C    0.3062725399    0.2577900305    0.0284433214
C508       C    0.2960059799    0.2573336175   -0.0490436503
C509       C    0.2450756935    0.2715431841   -0.0760581064
C510       C    0.2044119671    0.2862091637   -0.0255855909
H511       H    0.1845768077    0.2975222109    0.0892641520
H512       H    0.3439722438    0.2472716957    0.0484377286
H513       H    0.3261076994    0.2464769832   -0.0864064215
H514       H    0.1667122633    0.2967274985   -0.0455799981
C495       C    0.2075236267    0.2168833553    0.4728182633
C496       C    0.2448696737    0.2400797527    0.4236194467
C497       C    0.2921152347    0.2629924126    0.4520025889
C498       C    0.3020147487    0.2627086751    0.5295845477
C499       C    0.2646687017    0.2395122777    0.5787833642
C500       C    0.2174231407    0.2165996178    0.5504002220
H501       H    0.1725496401    0.1999220356    0.4518073658
H502       H    0.3197601411    0.2801630287    0.4155866980
H503       H    0.3369887353    0.2796699948    0.5505954451
H504       H    0.1897782343    0.1994290018    0.5868161130
C485       C    0.1084294686    0.9346066143    0.3468608943
C486       C    0.0949361586    0.9166852601    0.4191355140
C487       C    0.1125598392    0.8662732131    0.4440367005
C488       C    0.1436768300    0.8337825203    0.3966632674
C489       C    0.1571701401    0.8517038745    0.3243886477
C490       C    0.1395464594    0.9021159215    0.2994874612
H491       H    0.0953833674    0.9719246231    0.3284275484
H492       H    0.1025726968    0.8530062950    0.4975349052
H493       H    0.1567229313    0.7964645115    0.4150966132
H494       H    0.1495336019    0.9153828396    0.2459892565
C475       C    0.2429501020    0.7891860387    0.5387277312
C476       C    0.2386257947    0.7401175218    0.5768555508
C477       C    0.2441004252    0.6917001984    0.5373826955
C478       C    0.2538993630    0.6923513919    0.4597820206
C479       C    0.2582236703    0.7414199089    0.4216542010
C480       C    0.2527490398    0.7898372323    0.4611270563
H481       H    0.2388974534    0.8250274339    0.5679478968
H482       H    0.2408997616    0.6553783243    0.5656035229
H483       H    0.2579520116    0.6565099967    0.4305618550
H484       H    0.2559497034    0.8261591064    0.4329062290
C465       C    0.2799459906    0.8049938799    0.0458442308
C466       C    0.2398484350    0.7722257717    0.0767105690
C467       C    0.2091096092    0.7389934996    0.0298667704
C468       C    0.2184683390    0.7385293356   -0.0478433663
C469       C    0.2585658946    0.7712974437   -0.0787097045
C470       C    0.2893047204    0.8045297159   -0.0318659059
H471       H    0.3027007058    0.8295943931    0.0805208089
H472       H    0.1794285683    0.7147376106    0.0527124417
H473       H    0.1957136238    0.7139288224   -0.0825199445
H474       H    0.3189857613    0.8287856048   -0.0547115773
C455       C    0.4334149352    0.1294682447   -0.1274125334
C456       C    0.4077398457    0.0978886255   -0.0729854025
C457       C    0.3516053614    0.0983683292   -0.0673136667
C458       C    0.3211459665    0.1304276520   -0.1160690618
C459       C    0.3468210560    0.1620072712   -0.1704961927
C460       C    0.4029555403    0.1615275675   -0.1761679285
H461       H    0.4749690340    0.1291131394   -0.1316110911
H462       H    0.3325989749    0.0749932225   -0.0270267184
H463       H    0.2795918678    0.1307827573   -0.1118705042
H464       H    0.4219619268    0.1849026742   -0.2164548769
C445       C    0.4555861815    0.9585559858    0.2825086189
C446       C    0.4871939339    0.9898509857    0.3308129558
C447       C    0.5172623236    1.0327587726    0.3020349715
C448       C    0.5157229608    1.0443715596    0.2249526503
C449       C    0.4841152085    1.0130765598    0.1766483134
C450       C    0.4540468188    0.9701687728    0.2054262977
H451       H    0.4333277632    0.9267930785    0.3038118020
H452       H    0.5406592211    1.0559245782    0.3377887593
H453       H    0.5379813792    1.0761344669    0.2036494672
H454       H    0.4306499212    0.9470029672    0.1696725099
C435       C    0.5048817992    0.9582986190    0.7051575525
C436       C    0.5188660292    1.0086731021    0.6759615240
C437       C    0.5313887843    1.0510734396    0.7247522932
C438       C    0.5299273095    1.0430992939    0.8027390910
C439       C    0.5159430796    0.9927248108    0.8319351195
C440       C    0.5034203244    0.9503244733    0.7831443503
H441       H    0.4956117078    0.9269113562    0.6690397104
H442       H    0.5417402580    1.0883617948    0.7031430408
H443       H    0.5391974010    1.0744865567    0.8388569331
H444       H    0.4930688508    0.9130361181    0.8047536027
C425       C    0.4111861607    0.9151365264    0.6560831736
C426       C    0.4090520226    0.9074009317    0.5780751106
C427       C    0.3738580890    0.8692622864    0.5475526907
C428       C    0.3407982936    0.8388592359    0.5950383338
C429       C    0.3429324317    0.8465948307    0.6730463968
C430       C    0.3781263653    0.8847334760    0.7035688167
H431       H    0.4372388129    0.9433690301    0.6786776923
H432       H    0.3722772938    0.8635352196    0.4898104337
H433       H    0.3147456415    0.8106267323    0.5724438151
H434       H    0.3797071606    0.8904605427    0.7613110737
C415       C    0.5813484111    0.9080528975    0.1615701937
C416       C    0.5925511687    0.9094289150    0.0843618695
C417       C    0.6352826486    0.8792670856    0.0552385557
C418       C    0.6668113708    0.8477292387    0.1033235662
C419       C    0.6556086132    0.8463532212    0.1805318904
C420       C    0.6128771334    0.8765150506    0.2096552041
H421       H    0.5497160170    0.9303804855    0.1831290104
H422       H    0.6435762423    0.8802846544   -0.0019116931
H423       H    0.6984437650    0.8254016507    0.0817647495
H424       H    0.6045835397    0.8754974819    0.2668054530
C405       C    0.7988489075    0.7888056679    0.5372831150
C406       C    0.7602061619    0.7688469685    0.5872961400
C407       C    0.7115561292    0.7484928898    0.5597550996
C408       C    0.7015488420    0.7480975104    0.4822010343
C409       C    0.7401915876    0.7680562098    0.4321880094
C410       C    0.7888416203    0.7884102885    0.4597290497
H411       H    0.8348625681    0.8038729730    0.5576706384
H412       H    0.6829513666    0.7337188873    0.5967736914
H413       H    0.6655351814    0.7330302053    0.4618135110
H414       H    0.8174463829    0.8031842910    0.4227104580
C395       C    0.7016923937    0.7192834887    0.9808955454
C396       C    0.7417655509    0.7379945704    0.9321599778
C397       C    0.7908517558    0.7561046070    0.9612142335
C398       C    0.7998648034    0.7555035618    1.0390040569
C399       C    0.7597916462    0.7367924801    1.0877396245
C400       C    0.7107054413    0.7186824435    1.0586853688
H401       H    0.6653558524    0.7058773578    0.9593878496
H402       H    0.8205153178    0.7699550563    0.9251412590
H403       H    0.8362013447    0.7689096928    1.0605117527
H404       H    0.6810418793    0.7048319942    1.0947583432
C385       C    0.8503663984    0.9033386468    0.8157040471
C386       C    0.8444655602    0.8488233534    0.8334984937
C387       C    0.8708969883    0.8273575737    0.8962499374
C388       C    0.9032292546    0.8604070873    0.9412069345
C389       C    0.9091300929    0.9149223807    0.9234124879
C390       C    0.8826986648    0.9363881605    0.8606610442
H391       H    0.8308002763    0.9192288994    0.7692516796
H392       H    0.8665300452    0.7870048679    0.9094233094
H393       H    0.9227953768    0.8445168348    0.9876593019
H394       H    0.8870656078    0.9767408662    0.8474876722
C375       C    0.6851690192    0.1230391204    0.3882679714
C376       C    0.6609074227    0.1543036138    0.3322275865
C377       C    0.6049688770    0.1536480895    0.3235692852
C378       C    0.5732919278    0.1217280718    0.3709513686
C379       C    0.5975535243    0.0904635784    0.4269917534
C380       C    0.6534920700    0.0911191027    0.4356500548
H381       H    0.7265780725    0.1235243787    0.3946773633
H382       H    0.5870087592    0.1767899357    0.2820881175
H383       H    0.5318828745    0.1212428135    0.3645419767
H384       H    0.6714521878    0.0679772565    0.4771312225
C365       C    0.7254430223    0.1969187283    0.9603974350
C366       C    0.7624159274    0.2333845209    0.9300158902
C367       C    0.7897727356    0.2691726835    0.9772794195
C368       C    0.7801566388    0.2684950536    1.0549244935
C369       C    0.7431837338    0.2320292610    1.0853060383
C370       C    0.7158269255    0.1962410984    1.0380425091
H371       H    0.7051918786    0.1704261923    0.9254101471
H372       H    0.8171408143    0.2961656662    0.9547926038
H373       H    0.8004077826    0.2949875896    1.0899117814
H374       H    0.6884588469    0.1692481157    1.0605293248
C355       C    0.6997471292    0.2743750237    0.5340599886
C356       C    0.7415976825    0.2658127221    0.5853786347
C357       C    0.7938633354    0.2564281166    0.5592569329
C358       C    0.8042784350    0.2556058127    0.4818165849
C359       C    0.7624278817    0.2641681143    0.4304979387
C360       C    0.7101622288    0.2735527198    0.4566196405
H361       H    0.6610569706    0.2813220693    0.5533968328
H362       H    0.8248426203    0.2500900344    0.5972419857
H363       H    0.8429685937    0.2486587670    0.4624797406
H364       H    0.6791829439    0.2798908020    0.4186345877
C345       C    0.8938657853    0.1811369681    0.6516426218
C346       C    0.8454203211    0.1596229292    0.6781243010
C347       C    0.8285910963    0.1087477210    0.6539879316
C348       C    0.8602073356    0.0793865518    0.6033698829
C349       C    0.9086527998    0.1009005907    0.5768882037
C350       C    0.9254820246    0.1517757989    0.6010245731
H351       H    0.9063237829    0.2187978365    0.6695098043
H352       H    0.7927314033    0.0928214958    0.6735888125
H353       H    0.8477493380    0.0417256834    0.5855027003
H354       H    0.9613417176    0.1677020242    0.5814236921
C335       C    0.5976624428    0.4184019272   -0.1401966366
C336       C    0.5953443913    0.4059691165   -0.0634044452
C337       C    0.6241937352    0.3620320090   -0.0352106324
C338       C    0.6553611306    0.3305277121   -0.0838090111
C339       C    0.6576791821    0.3429605227   -0.1606012025
C340       C    0.6288298382    0.3868976303   -0.1887950153
H341       H    0.5763064350    0.4509267991   -0.1610673812
H342       H    0.6224788347    0.3528278962    0.0216315670
H343       H    0.6767171385    0.2980028402   -0.0629382665
H344       H    0.6305447387    0.3961017431   -0.2456372147
C325       C    0.4315568228    0.6319887504    0.1377266299
C326       C    0.4081194853    0.5952474388    0.0878376198
C327       C    0.3520866314    0.5916700265    0.0823658935
C328       C    0.3194911150    0.6248339260    0.1267831773
C329       C    0.3429284525    0.6615752376    0.1766721875
C330       C    0.3989613064    0.6651526499    0.1821439138
H331       H    0.4730356887    0.6346369647    0.1417771286
H332       H    0.3347366242    0.5644741250    0.0454380523
H333       H    0.2780122491    0.6221857117    0.1227326786
H334       H    0.4163113136    0.6923485514    0.2190717550
C315       C    0.5724974021    0.6348543716    0.6331217073
C316       C    0.5967021430    0.5934497917    0.5918541676
C317       C    0.6521508098    0.5846974407    0.5975760673
C318       C    0.6833947356    0.6173496695    0.6445655068
C319       C    0.6591899947    0.6587542494    0.6858330466
C320       C    0.6037413279    0.6675066004    0.6801111469
H321       H    0.5314509864    0.6413333846    0.6288860153
H322       H    0.6700688279    0.5540496408    0.5670301621
H323       H    0.7244411513    0.6108706564    0.6488011988
H324       H    0.5858233099    0.6981544003    0.7106570521
C305       C    0.5420666595    0.5472185072    0.2930886481
C306       C    0.5197014470    0.5095983879    0.3426333359
C307       C    0.4965164091    0.4623967113    0.3145232243
C308       C    0.4956965835    0.4528151541    0.2368684247
C309       C    0.5180617960    0.4904352734    0.1873237368
C310       C    0.5412468340    0.5376369500    0.2154338485
H311       H    0.5592296097    0.5821600080    0.3138974320
H312       H    0.4799610245    0.4345489389    0.3511951365
H313       H    0.4785336333    0.4178736533    0.2160596407
H314       H    0.5578022185    0.5654847224    0.1787619362
C295       C    0.5174113597    0.5322854782    0.7164995580
C296       C    0.4877231899    0.4893236801    0.6870808892
C297       C    0.4576806281    0.4564090299    0.7352085329
C298       C    0.4573262360    0.4664561778    0.8127548454
C299       C    0.4870144058    0.5094179759    0.8421735141
C300       C    0.5170569677    0.5423326261    0.7940458704
H301       H    0.5396506587    0.5566508686    0.6808726009
H302       H    0.4357045995    0.4246078179    0.7134344620
H303       H    0.4350869370    0.4420907873    0.8483818024
H304       H    0.5390329962    0.5741338380    0.8158199414
C285       C    0.3899177258    0.4320356986    0.3696615468
C286       C    0.4111514533    0.4074058048    0.4339853638
C287       C    0.4012926974    0.3528605519    0.4476908118
C288       C    0.3702002141    0.3229451928    0.3970724429
C289       C    0.3489664866    0.3475750866    0.3327486259
C290       C    0.3588252425    0.4021203395    0.3190431779
H291       H    0.3972157659    0.4724133534    0.3595159554
H292       H    0.4170095150    0.3346278659    0.4953035063
H293       H    0.3629021740    0.2825675381    0.4072180343
H294       H    0.3431084249    0.4203530256    0.2714304834
C275       C   -0.1397415008    0.6181763000    0.4551619745
C276       C   -0.0935371549    0.5936669575    0.4260358773
C277       C   -0.0793199818    0.6015716885    0.3505929691
C278       C   -0.1113071547    0.6339857621    0.3042761580
C279       C   -0.1575115006    0.6584951046    0.3334022552
C280       C   -0.1717286737    0.6505903736    0.4088451634
H281       H   -0.1502659017    0.6123247459    0.5110093221
H282       H   -0.0451192393    0.5834302104    0.3290315480
H283       H   -0.1007827539    0.6398373162    0.2484288104
H284       H   -0.2059294163    0.6687318516    0.4304065845
C265       C    0.1425586208    0.4307137205    0.6066214213
C266       C    0.0950932912    0.4086970678    0.5775721035
C267       C    0.0802044409    0.3561233825    0.5964800050
C268       C    0.1127809203    0.3255663500    0.6444372243
C269       C    0.1602462499    0.3475830027    0.6734865422
C270       C    0.1751351001    0.4001566880    0.6545786407
H271       H    0.1535802372    0.4696319031    0.5926246631
H272       H    0.0450703015    0.3398250706    0.5749784015
H273       H    0.1017593039    0.2866481674    0.6584339826
H274       H    0.2102692396    0.4164549999    0.6760802442
C255       C   -0.0894169684    0.3491650075    0.0751701515
C256       C   -0.0922972079    0.4053004677    0.0794197678
C257       C   -0.1260102324    0.4297550715    0.1324375502
C258       C   -0.1568430174    0.3980742150    0.1812057164
C259       C   -0.1539627779    0.3419387548    0.1769561002
C260       C   -0.1202497534    0.3174841510    0.1239383177
H261       H   -0.0644605736    0.3310622488    0.0359232216
H262       H   -0.1281432423    0.4713071136    0.1355847790
H263       H   -0.1817994121    0.4161769736    0.2204526463
H264       H   -0.1181167435    0.2759321089    0.1207910890
C245       C   -0.0328730912    0.5077937393    0.2118177146
C246       C    0.0158171443    0.5103144345    0.1724486844
C247       C    0.0645031642    0.5032507238    0.2107370094
C248       C    0.0644989485    0.4936663179    0.2883943646
C249       C    0.0158087130    0.4911456227    0.3277633948
C250       C   -0.0328773069    0.4982093334    0.2894750698
H251       H   -0.0689133917    0.5130227200    0.1834744091
H252       H    0.1005450443    0.5051163098    0.1815974048
H253       H    0.1005392489    0.4884373372    0.3167376701
H254       H   -0.0689191870    0.4963437474    0.3186146744
C235       C    0.0329374508    0.4927527684   -0.2113895179
C236       C   -0.0157837685    0.4899317637   -0.1721358773
C237       C   -0.0644463070    0.4971459399   -0.2104277247
C238       C   -0.0643876261    0.5071811207   -0.2879732127
C239       C   -0.0156664067    0.5100021254   -0.3272268533
C240       C    0.0329961317    0.5027879493   -0.2889350059
H241       H    0.0689603689    0.4874124043   -0.1830436049
H242       H   -0.1005111204    0.4950580705   -0.1813735312
H243       H   -0.1004105442    0.5125214848   -0.3163191257
H244       H    0.0690609451    0.5048758186   -0.3179891994
C225       C    0.1766509985    0.6137344246   -0.1428335576
C226       C    0.1546316079    0.6607392622   -0.1733158539
C227       C    0.1016117252    0.6752237430   -0.1563392231
C228       C    0.0706112329    0.6427033860   -0.1088802962
C229       C    0.0926306235    0.5956985484   -0.0783980000
C230       C    0.1456505062    0.5812140677   -0.0953746307
H231       H    0.2158994831    0.6030121467   -0.1554006739
H232       H    0.0853113726    0.7100170151   -0.1789015732
H233       H    0.0313627483    0.6534256640   -0.0963131800
H234       H    0.1619508588    0.5464207955   -0.0728122807
loop_
_geom_bond_atom_site_label_1
_geom_bond_atom_site_label_2
_geom_bond_distance
_geom_bond_site_symmetry_2
_ccdc_geom_bond_type
C510       H514 1.140       .   S
C507       H512 1.140       .   S
C508       H513 1.140       .   S
C505       H511 1.140       .   S
O29         C39 1.250       .   A
O29        Cu37 1.951       .   S
O22        Cu24 1.951       .   S
O22         C25 1.250       .   A
O20        Cu24 1.951       .   S
O20         C27 1.251       .   A
O21        Cu24 1.951       .   S
O21         C26 1.250       .   A
C249       C250 1.540       .   A
C248       C249 1.540       .   A
C27        C249 0.949       .   S
C247       C248 1.540       .   A
C248       H253 1.140       .   S
O48        Cu52 1.951       .   S
O49        Cu52 1.951       .   S
O50        Cu52 1.951       .   S
Cu51       Cu52 2.630       .   S
O47        Cu52 1.951       .   S
O43        Cu51 1.951       .   S
O44        Cu51 1.951       .   S
O45        Cu51 1.951       .   S
O46        Cu51 1.951       .   S
C239       C240 1.540       .   A
C240       H244 1.140       .   S
C235       C240 1.540       .   A
C246       C247 1.540       .   A
C247       H252 1.140       .   S
C245       C246 1.540       .   A
C246        C14 0.949       .   S
C245       C250 1.540       .   A
C245       H251 1.140       .   S
O144      Cu149 1.951       .   S
Cu149     Cu150 2.630       .   S
O141      Cu149 1.951       .   S
O142      Cu149 1.951       .   S
O143      Cu149 1.951       .   S
C376       C377 1.540       .   A
C375       C376 1.540       .   A
C376        C82 1.448       .   S
C325       C330 1.540       .   A
C325       H331 1.140       .   S
C325       C326 1.540       .   A
C457       H462 1.140       .   S
C488       C489 1.540       .   A
C489       C490 1.540       .   A
C152       C489 1.459       .   S
C455       H461 1.140       .   S
C460       H464 1.140       .   S
C488       H493 1.140       .   S
C487       C488 1.540       .   A
C338       H343 1.140       .   S
C337       H342 1.140       .   S
C335       H341 1.140       .   S
C340       H344 1.140       .   S
O59         C69 1.250       .   A
O59        Cu65 1.951       .   S
O58         C68 1.250       .   A
O58        Cu65 1.951       .   S
O50         C53 1.250       .   A
O57         C67 1.250       .   A
O57        Cu65 1.951       .   S
C475       H481 1.140       .   S
O188       C195 1.251       .   A
O185       C195 1.250       .   A
C195       C499 0.954       .   S
O162      Cu164 1.951       .   S
O162       C165 1.250       .   A
O160       C167 1.251       .   A
O160      Cu164 1.951       .   S
O161       C166 1.250       .   A
O161      Cu164 1.951       .   S
O19        Cu24 1.951       .   S
O19         C28 1.250       .   A
C228       H233 1.140       .   S
C193       C269 1.487       .   S
O183       C193 1.250       .   A
O190       C193 1.250       .   A
O169       C179 1.250       .   A
O169      Cu177 1.951       .   S
C485       H491 1.140       .   S
C485       C490 1.540       .   A
C485       C486 1.540       .   A
O30         C40 1.250       .   A
O35         C40 1.250       .   A
C40        C286 1.491       .   S
O31         C41 1.250       .   A
C41        C296 0.944       .   S
O34         C41 1.251       .   A
C42        C306 0.949       .   S
O33         C42 1.250       .   A
O32         C42 1.250       .   A
C318       C319 1.540       .   A
C318       H323 1.140       .   S
C317       C318 1.540       .   A
O75        Cu80 1.951       .   S
O77        Cu80 1.951       .   S
O76        Cu80 1.951       .   S
Cu79       Cu80 2.630       .   S
O78        Cu80 1.951       .   S
C225       H231 1.140       .   S
O211      Cu219 1.951       .   S
O212      Cu219 1.951       .   S
O213      Cu219 1.951       .   S
O214      Cu219 1.951       .   S
Cu219     Cu220 2.630       .   S
C285       H291 1.140       .   S
C288       H293 1.140       .   S
C287       H292 1.140       .   S
C290       H294 1.140       .   S
C348       H353 1.140       .   S
C348       C349 1.540       .   A
C347       C348 1.540       .   A
C349       C350 1.540       .   A
C222       C349 1.483   1_455   S
C339       C340 1.540       .   A
C335       C340 1.540       .   A
C67        C346 1.483       .   S
C346       C347 1.540       .   A
C345       C346 1.540       .   A
C347       H352 1.140       .   S
C345       H351 1.140       .   S
C345       C350 1.540       .   A
C487       H492 1.140       .   S
C490       H494 1.140       .   S
C83        C369 0.917   1_554   S
C368       C369 1.540       .   A
C369       C370 1.540       .   A
C526       C527 1.540       .   A
C525       C526 1.540       .   A
C526       C209 0.943       .   S
C527       H532 1.140       .   S
C527       C528 1.540       .   A
C525       C530 1.540       .   A
C525       H531 1.140       .   S
C519       C520 1.540       .   A
C515       C520 1.540       .   A
C520       H524 1.140       .   S
C287       C288 1.540       .   A
C288       C289 1.540       .   A
C286       C287 1.540       .   A
C285       C286 1.540       .   A
C285       C290 1.540       .   A
C528       H533 1.140       .   S
C528       C529 1.540       .   A
C529       C530 1.540       .   A
C223       C529 0.943   1_554   S
C449       C140 0.937   1_565   S
C449       C450 1.540       .   A
C448       C449 1.540       .   A
C448       H453 1.140       .   S
C447       C448 1.540       .   A
C445       C450 1.540       .   A
C445       C446 1.540       .   A
C445       H451 1.140       .   S
C446       C447 1.540       .   A
C447       H452 1.140       .   S
O7         Cu10 1.951       .   S
O6         Cu10 1.951       .   S
O5         Cu10 1.951       .   S
Cu9        Cu10 2.630       .   S
O8         Cu10 1.951       .   S
C440       H444 1.140       .   S
C439       C440 1.540       .   A
C435       C440 1.540       .   A
C111       C399 0.918   1_554   S
O101       C111 1.250       .   A
O104       C111 1.251       .   A
O100       C110 1.250       .   A
O105       C110 1.250       .   A
C110       C279 1.447   1_655   S
O103      Cu108 1.951       .   S
O104      Cu108 1.951       .   S
O105      Cu108 1.951       .   S
O106      Cu108 1.951       .   S
Cu107     Cu108 2.630       .   S
O88        Cu93 1.951       .   S
O88         C98 1.250       .   A
O89         C98 1.250       .   A
O89        Cu94 1.951       .   S
O85        Cu93 1.951       .   S
O85         C95 1.250       .   A
O86        Cu93 1.951       .   S
O86         C96 1.250       .   A
O87        Cu93 1.951       .   S
O87         C97 1.250       .   A
O100      Cu107 1.951       .   S
O101      Cu107 1.951       .   S
O102      Cu107 1.951       .   S
O99       Cu107 1.951       .   S
C420       H424 1.140       .   S
C417       H422 1.140       .   S
C418       H423 1.140       .   S
C478       H483 1.140       .   S
C415       H421 1.140       .   S
C380       H384 1.140       .   S
C378       H383 1.140       .   S
C377       H382 1.140       .   S
C375       H381 1.140       .   S
O17        Cu23 1.951       .   S
O17         C27 1.250       .   A
O16         C26 1.250       .   A
O16        Cu23 1.951       .   S
O15        Cu23 1.951       .   S
O15         C25 1.250       .   A
C540       H544 1.140       .   S
C535       H541 1.140       .   S
C538       H543 1.140       .   S
O18         C28 1.250       .   A
O18        Cu23 1.951       .   S
C225       C230 1.540       .   A
C229       C230 1.540       .   A
C230       H234 1.140       .   S
C236        C13 0.944       .   S
C236       C237 1.540       .   A
C235       C236 1.540       .   A
C237       H242 1.140       .   S
C237       C238 1.540       .   A
C235       H241 1.140       .   S
C238       H243 1.140       .   S
C238       C239 1.540       .   A
C28        C239 0.944   1_556   S
O127       C137 1.250       .   A
O127      Cu135 1.951       .   S
O120      Cu122 1.951       .   S
O120       C123 1.250       .   A
O128      Cu135 1.951       .   S
O128       C138 1.250       .   A
O129       C139 1.250       .   A
O129      Cu135 1.951       .   S
O175      Cu178 1.951       .   S
O174      Cu178 1.951       .   S
Cu177     Cu178 2.630       .   S
O176      Cu178 1.951       .   S
O173      Cu178 1.951       .   S
O171      Cu177 1.951       .   S
O170      Cu177 1.951       .   S
O172      Cu177 1.951       .   S
C228       C229 1.540       .   A
C229        C11 1.515       .   S
C327       H332 1.140       .   S
C328       H333 1.140       .   S
C330       H334 1.140       .   S
C519       C207 1.501   1_554   S
C518       C519 1.540       .   A
O190      Cu192 1.951       .   S
O197       C207 1.250       .   A
O197      Cu205 1.951       .   S
O199       C209 1.250       .   A
O199      Cu205 1.951       .   S
O198      Cu205 1.951       .   S
O198       C208 1.250       .   A
O106       C109 1.250       .   A
O99        C109 1.250       .   A
C109       C419 1.517       .   S
C250       H254 1.140       .   S
C497       C498 1.540       .   A
C498       H503 1.140       .   S
C498       C499 1.540       .   A
C499       C500 1.540       .   A
C496       C497 1.540       .   A
C495       C496 1.540       .   A
C181       C496 0.954       .   S
C497       H502 1.140       .   S
C495       C500 1.540       .   A
C495       H501 1.140       .   S
C509       C510 1.540       .   A
C505       C510 1.540       .   A
C307       C308 1.540       .   A
C308       H313 1.140       .   S
C308       C309 1.540       .   A
C309       C310 1.540       .   A
C56        C309 0.949       .   S
C306       C307 1.540       .   A
C305       C306 1.540       .   A
C307       H312 1.140       .   S
C305       C310 1.540       .   A
C305       H311 1.140       .   S
C295       C300 1.540       .   A
C300       H304 1.140       .   S
C299       C300 1.540       .   A
C39        C316 1.470       .   S
O36         C39 1.250       .   A
O218      Cu220 1.951       .   S
O215      Cu220 1.951       .   S
O216      Cu220 1.951       .   S
O217      Cu220 1.951       .   S
C153       C466 0.945       .   S
O146       C153 1.251       .   A
O143       C153 1.250       .   A
O147       C152 1.250       .   A
O142       C152 1.250       .   A
C151       C329 1.478       .   S
O148       C151 1.250       .   A
O141       C151 1.250       .   A
C405       H411 1.140       .   S
C405       C410 1.540       .   A
C405       C406 1.540       .   A
C407       C408 1.540       .   A
C407       H412 1.140       .   S
C406       C407 1.540       .   A
O144       C154 1.250       .   A
O145       C154 1.250       .   A
C154       C479 0.938       .   S
C408       C409 1.540       .   A
C112       C409 0.964       .   S
C409       C410 1.540       .   A
C408       H413 1.140       .   S
C390       H394 1.140       .   S
C385       C390 1.540       .   A
C389       C390 1.540       .   A
C395       C400 1.540       .   A
C395       H401 1.140       .   S
C395       C396 1.540       .   A
C397       C398 1.540       .   A
C397       H402 1.140       .   S
C396       C397 1.540       .   A
C97        C396 0.918       .   S
C398       C399 1.540       .   A
C399       C400 1.540       .   A
C398       H403 1.140       .   S
C458       H463 1.140       .   S
C500       H504 1.140       .   S
C276       C277 1.540       .   A
C275       C276 1.540       .   A
C25        C276 1.447       .   S
C277       H282 1.140       .   S
C277       C278 1.540       .   A
C275       H281 1.140       .   S
C275       C280 1.540       .   A
C269       C270 1.540       .   A
C270       H274 1.140       .   S
C265       C270 1.540       .   A
C278       H283 1.140       .   S
C278       C279 1.540       .   A
C279       C280 1.540       .   A
C475       C480 1.540       .   A
C475       C476 1.540       .   A
C476       C477 1.540       .   A
C476       C168 0.938       .   S
C477       C478 1.540       .   A
C477       H482 1.140       .   S
O62        Cu66 1.951       .   S
O63        Cu66 1.951       .   S
O61        Cu66 1.951       .   S
O64        Cu66 1.951       .   S
Cu65       Cu66 2.630       .   S
O60        Cu65 1.951       .   S
C478       C479 1.540       .   A
C479       C480 1.540       .   A
O130      Cu135 1.951       .   S
Cu135     Cu136 2.630       .   S
O131      Cu136 1.951       .   S
O133      Cu136 1.951       .   S
O132      Cu136 1.951       .   S
O134      Cu136 1.951       .   S
C370       H374 1.140       .   S
C367       H372 1.140       .   S
C368       H373 1.140       .   S
C365       H371 1.140       .   S
C470       H474 1.140       .   S
C465       H471 1.140       .   S
C468       H473 1.140       .   S
C467       H472 1.140       .   S
O48         C55 1.251       .   A
O49         C54 1.250       .   A
O43         C53 1.250       .   A
O44         C54 1.250       .   A
O45         C55 1.250       .   A
O46         C56 1.250       .   A
O47         C56 1.250       .   A
O175       C180 1.250       .   A
O174       C181 1.251       .   A
O176       C179 1.250       .   A
O171       C181 1.250       .   A
O170       C180 1.250       .   A
O173       C182 1.250       .   A
O172       C182 1.250       .   A
C366       C367 1.540       .   A
C367       C368 1.540       .   A
O119       C124 1.250       .   A
C379       C124 1.448   1_545   S
O114       C124 1.250       .   A
O118       C125 1.251       .   A
C436       C125 0.961       .   S
O115       C125 1.250       .   A
O60         C70 1.250       .   A
O61         C70 1.250       .   A
C70        C366 0.917       .   S
C255       H261 1.140       .   S
Cu93       Cu94 2.630       .   S
O92        Cu94 1.951       .   S
O91        Cu94 1.951       .   S
O90        Cu94 1.951       .   S
C355       H361 1.140       .   S
C355       C356 1.540       .   A
C355       C360 1.540       .   A
C356       C357 1.540       .   A
C357       C358 1.540       .   A
C357       H362 1.140       .   S
C69        C356 0.988       .   S
C350       H354 1.140       .   S
C260       H264 1.140       .   S
C84        C359 0.988       .   S
C359       C360 1.540       .   A
C358       C359 1.540       .   A
C358       H363 1.140       .   S
C257       H262 1.140       .   S
C258       H263 1.140       .   S
C530       H534 1.140       .   S
Cu23       Cu24 2.630       .   S
C535       C540 1.540       .   A
C535       C536 1.540       .   A
C537       C538 1.540       .   A
C537       H542 1.140       .   S
C536       C537 1.540       .   A
C536       C210 0.950       .   S
C538       C539 1.540       .   A
C539       C540 1.540       .   A
C224       C539 0.950       .   S
C438       C439 1.540       .   A
C438       H443 1.140       .   S
C437       C438 1.540       .   A
C439       C139 0.961   1_566   S
O30        Cu37 1.951       .   S
C429       C430 1.540       .   A
C430       H434 1.140       .   S
C425       C430 1.540       .   A
O113       C123 1.250       .   A
C123       C426 1.449       .   S
C446       C126 0.937       .   S
O117       C126 1.250       .   A
O116       C126 1.250       .   A
C435       C436 1.540       .   A
C435       H441 1.140       .   S
C436       C437 1.540       .   A
C437       H442 1.140       .   S
C425       H431 1.140       .   S
C428       H433 1.140       .   S
C427       H432 1.140       .   S
O36        Cu38 1.951       .   S
C258       C259 1.540       .   A
C257       C258 1.540       .   A
O90         C97 1.251       .   A
C319        C96 1.470       .   S
O91         C96 1.250       .   A
C95        C386 1.458       .   S
O92         C95 1.250       .   A
C259       C260 1.540       .   A
C81        C259 1.507   1_655   S
O211       C221 1.250       .   A
O212       C222 1.250       .   A
O213       C223 1.250       .   A
O214       C224 1.250       .   A
O215       C224 1.250       .   A
O216       C223 1.251       .   A
O217       C222 1.250       .   A
O218       C221 1.250       .   A
C227       H232 1.140       .   S
C226       C227 1.540       .   A
C227       C228 1.540       .   A
C225       C226 1.540       .   A
C165       C226 1.515   1_556   S
C486       C221 1.459   1_565   S
O131       C140 1.250       .   A
O130       C140 1.250       .   A
O133       C138 1.250       .   A
O132       C139 1.251       .   A
O134       C137 1.250       .   A
Cu163     Cu164 2.630       .   S
O159      Cu164 1.951       .   S
O157      Cu163 1.951       .   S
O156      Cu163 1.951       .   S
O155      Cu163 1.951       .   S
O158      Cu163 1.951       .   S
C320       H324 1.140       .   S
C315       H321 1.140       .   S
C317       H322 1.140       .   S
O145      Cu150 1.951       .   S
O146      Cu150 1.951       .   S
O147      Cu150 1.951       .   S
C480       H484 1.140       .   S
O148      Cu150 1.951       .   S
C486       C487 1.540       .   A
C319       C320 1.540       .   A
C466       C467 1.540       .   A
C467       C468 1.540       .   A
C508       C509 1.540       .   A
C509       C196 0.952   1_554   S
C310       H314 1.140       .   S
C315       C320 1.540       .   A
C315       C316 1.540       .   A
C316       C317 1.540       .   A
C26        C266 1.487       .   S
O159       C168 1.250       .   A
O158       C168 1.250       .   A
O156       C166 1.250       .   A
C166       C429 1.449       .   S
O157       C167 1.250       .   A
C167       C469 0.945   1_556   S
O155       C165 1.250       .   A
C469       C470 1.540       .   A
C468       C469 1.540       .   A
C365       C366 1.540       .   A
C365       C370 1.540       .   A
C507       C508 1.540       .   A
C506       C507 1.540       .   A
C360       H364 1.140       .   S
C180       C516 1.501       .   S
C506       C182 0.952       .   S
C255       C260 1.540       .   A
C265       H271 1.140       .   S
C265       C266 1.540       .   A
C267       C268 1.540       .   A
C267       H272 1.140       .   S
C266       C267 1.540       .   A
C268       C269 1.540       .   A
C268       H273 1.140       .   S
C465       C466 1.540       .   A
C465       C470 1.540       .   A
O74        Cu79 1.951       .   S
O71        Cu79 1.951       .   S
O73        Cu79 1.951       .   S
O72        Cu79 1.951       .   S
C459       C460 1.540       .   A
C455       C460 1.540       .   A
C505       C506 1.540       .   A
O119      Cu122 1.951       .   S
O118      Cu122 1.951       .   S
O117      Cu122 1.951       .   S
Cu121     Cu122 2.630       .   S
O113      Cu121 1.951       .   S
O116      Cu121 1.951       .   S
O115      Cu121 1.951       .   S
O114      Cu121 1.951       .   S
C400       H404 1.140       .   S
C98        C406 0.964       .   S
O201       C210 1.250       .   A
O200       C210 1.250       .   A
O78         C81 1.250       .   A
O75         C84 1.250       .   A
O74         C84 1.250       .   A
O77         C82 1.250       .   A
O76         C83 1.251       .   A
O71         C81 1.250       .   A
O73         C83 1.250       .   A
O72         C82 1.250       .   A
O188      Cu192 1.951       .   S
O189      Cu192 1.951       .   S
Cu191     Cu192 2.630       .   S
O187      Cu192 1.951       .   S
O183      Cu191 1.951       .   S
O184      Cu191 1.951       .   S
O185      Cu191 1.951       .   S
O186      Cu191 1.951       .   S
O102       C112 1.250       .   A
O103       C112 1.250       .   A
O63         C68 1.250       .   A
C339        C68 1.502   1_554   S
O62         C69 1.251       .   A
O64         C67 1.250       .   A
O31        Cu37 1.951       .   S
C54        C326 1.478       .   S
C326       C327 1.540       .   A
C327       C328 1.540       .   A
C328       C329 1.540       .   A
C329       C330 1.540       .   A
O6          C13 1.251       .   A
O3          C13 1.250       .   A
O7          C12 1.250       .   A
O2          C12 1.250       .   A
C12        C256 1.507       .   S
O1          C11 1.250       .   A
O8          C11 1.250       .   A
O5          C14 1.250       .   A
O4          C14 1.250       .   A
O33        Cu38 1.951       .   S
C456       C137 1.465       .   S
O32        Cu37 1.951       .   S
Cu37       Cu38 2.630       .   S
O35        Cu38 1.951       .   S
O34        Cu38 1.951       .   S
C416       C138 1.517   1_565   S
C428       C429 1.540       .   A
C427       C428 1.540       .   A
C415       C420 1.540       .   A
C419       C420 1.540       .   A
C426       C427 1.540       .   A
C425       C426 1.540       .   A
C518       H523 1.140       .   S
C517       H522 1.140       .   S
C515       H521 1.140       .   S
O203      Cu206 1.951       .   S
O203       C208 1.250       .   A
O202      Cu206 1.951       .   S
O202       C209 1.251       .   A
O201      Cu206 1.951       .   S
O200      Cu205 1.951       .   S
O204       C207 1.250       .   A
O204      Cu206 1.951       .   S
C255       C256 1.540       .   A
C256       C257 1.540       .   A
O4          Cu9 1.951       .   S
O3          Cu9 1.951       .   S
O2          Cu9 1.951       .   S
O1          Cu9 1.951       .   S
C450       H454 1.140       .   S
C55        C299 0.944   1_554   S
C53        C336 1.502       .   S
Cu205     Cu206 2.630       .   S
C179       C289 1.491       .   S
C280       H284 1.140       .   S
C379       C380 1.540       .   A
C378       C379 1.540       .   A
C377       C378 1.540       .   A
C375       C380 1.540       .   A
O186       C196 1.250       .   A
O187       C196 1.250       .   A
O189       C194 1.250       .   A
C459       C194 1.465   1_554   S
O184       C194 1.250       .   A
C297       C298 1.540       .   A
C298       H303 1.140       .   S
C298       C299 1.540       .   A
C295       C296 1.540       .   A
C295       H301 1.140       .   S
C296       C297 1.540       .   A
C297       H302 1.140       .   S
C289       C290 1.540       .   A
C517       C518 1.540       .   A
C456       C457 1.540       .   A
C455       C456 1.540       .   A
C457       C458 1.540       .   A
C458       C459 1.540       .   A
C516       C517 1.540       .   A
C515       C516 1.540       .   A
C385       H391 1.140       .   S
C387       H392 1.140       .   S
C388       H393 1.140       .   S
C410       H414 1.140       .   S
C208       C389 1.458   1_445   S
C416       C417 1.540       .   A
C415       C416 1.540       .   A
C337       C338 1.540       .   A
C336       C337 1.540       .   A
C335       C336 1.540       .   A
C338       C339 1.540       .   A
C417       C418 1.540       .   A
C418       C419 1.540       .   A
C386       C387 1.540       .   A
C385       C386 1.540       .   A
C387       C388 1.540       .   A
C388       C389 1.540       .   A
