data_qdl_v1-4c_Cu_1_Ch_1B_4H_Ch
_audit_creation_date              2020-02-03
_audit_creation_method            'tobacco_3.0'
_symmetry_space_group_name_H-M    'P1'
_symmetry_Int_Tables_number       1
_symmetry_cell_setting            triclinic
loop_
_symmetry_equiv_pos_as_xyz
  x,y,z
_cell_length_a                    22.379414481992526
_cell_length_b                    22.379414481992526
_cell_length_c                    67.1380197966625
_cell_angle_alpha                 89.9999999990359
_cell_angle_beta                  89.99999999807186
_cell_angle_gamma                 120.00000034958434
loop_
_atom_site_label
_atom_site_type_symbol
_atom_site_fract_x
_atom_site_fract_y
_atom_site_fract_z
O1         O    0.0573705580    0.1153820963    0.2499999406
O2         O    0.0573682226   -0.0580131422    0.2499995097
O3         O    0.0573658105    0.0286754323    0.2211000062
O4         O    0.0573729822    0.0286872069    0.2789015500
O5         O   -0.0573657984   -0.0286817472    0.2789020997
O6         O   -0.0573727825   -0.0286871113    0.2211026624
O7         O   -0.0573705580   -0.1153820963    0.2500000594
O8         O   -0.0573682226    0.0580131422    0.2500004903
Cu9       Cu    0.0678399876    0.0339150128    0.2499994216
Cu10      Cu   -0.0678399876   -0.0339150128    0.2500005784
C11        C    0.0000000000    0.1122634657    0.2499999206
C12        C   -0.0000000000   -0.1122634657    0.2500000794
C13        C    0.0000000001    0.0000002391    0.2125800237
C14        C   -0.0000000001   -0.0000002391    0.2874199763
O15        O    0.9426294423    0.4713148992    0.2211008571
O16        O    0.9426317768    0.4713173574    0.2788990732
O17        O    0.9426341894    0.5580167864    0.2500023837
O18        O    0.9426270175    0.3846091465    0.2499996535
O19        O    1.0573657982    0.4419768883    0.2499995081
O20        O    1.0573727824    0.6153781147    0.2500001327
O21        O    1.0573705575    0.5286850992    0.2788989277
O22        O    1.0573682229    0.5286826410    0.2211007116
Cu23      Cu    0.9321600122    0.4660817403    0.2500015528
Cu24      Cu    1.0678399875    0.5339182582    0.2499982320
C25        C    1.0000000004    0.5000002390    0.2125786125
C26        C    0.9999999993    0.4999997595    0.2874211723
C27        C    0.9999999999    0.6122595542    0.2499998131
C28        C    0.9999999999    0.3877404442    0.2499999717
O29        O    0.4426294490   -0.0286850933    0.2211002923
O30        O    0.4426317826   -0.0286826352    0.2788985084
O31        O    0.4426341957    0.0580167939    0.2500018189
O32        O    0.4426270238   -0.1153908460    0.2499990888
O33        O    0.5573658044   -0.0580231042    0.2499989435
O34        O    0.5573727887    0.1153781221    0.2499995680
O35        O    0.5573705632    0.0286851066    0.2788983631
O36        O    0.5573682296    0.0286826485    0.2211001470
Cu37      Cu    0.4321600185   -0.0339182523    0.2500009880
Cu38      Cu    0.5678399937    0.0339182656    0.2499976675
C39        C    0.5000000073    0.0000002465    0.2125780478
C40        C    0.5000000049   -0.0000002332    0.2874206076
C41        C    0.5000000061    0.1122595616    0.2499992484
C42        C    0.5000000061   -0.1122595483    0.2499994071
O43        O    0.5573705630    0.6153821007    0.2499995348
O44        O    0.5573682276    0.4419868623    0.2499991038
O45        O    0.5573658164    0.5286754374    0.2210996003
O46        O    0.5573729864    0.5286872108    0.2789011442
O47        O    0.4426342058    0.4713182567    0.2789016935
O48        O    0.4426272234    0.4713128938    0.2211022563
O49        O    0.4426294470    0.3846179082    0.2499996532
O50        O    0.4426317824    0.5580131466    0.2500000842
Cu51      Cu    0.5678399926    0.5339150173    0.2499990158
Cu52      Cu    0.4321600174    0.4660849916    0.2500001722
C53        C    0.5000000050    0.6122634702    0.2499995146
C54        C    0.5000000050    0.3877365388    0.2499996733
C55        C    0.5000000062    0.5000002444    0.2125796177
C56        C    0.5000000038    0.4999997646    0.2874195703
O57        O   -0.0580115321    1.0573705530    0.4166665418
O58        O    0.1153813709    1.0573682176    0.4166661106
O59        O    0.0286903842    1.0573658065    0.3877666072
O60        O    0.0286857816    1.0573729764    0.4455681511
O61        O   -0.0286840461    0.9426341957    0.4455687004
O62        O   -0.0286856664    0.9426272135    0.3877692632
O63        O    0.0580115431    0.9426294370    0.4166666599
O64        O   -0.1153813598    0.9426317724    0.4166670912
Cu65      Cu    0.0339249810    1.0678399827    0.4166660227
Cu66      Cu   -0.0339249700    0.9321600074    0.4166671791
C67        C   -0.1122634602    0.9999999950    0.4166665217
C68        C    0.1122634712    0.9999999950    0.4166666801
C69        C   -0.0000002336    0.9999999963    0.3792466246
C70        C    0.0000002447    0.9999999937    0.4540865772
O71        O   -0.0580115350    0.5573705476    0.4166666461
O72        O    0.1153813680    0.5573682122    0.4166662149
O73        O    0.0286903815    0.5573658012    0.3877667115
O74        O    0.0286857785    0.5573729708    0.4455682554
O75        O   -0.0286840492    0.4426341902    0.4455688047
O76        O   -0.0286856691    0.4426272082    0.3877693674
O77        O    0.0580115402    0.4426294316    0.4166667642
O78        O   -0.1153813627    0.4426317670    0.4166671955
Cu79      Cu    0.0339249781    0.5678399772    0.4166661270
Cu80      Cu   -0.0339249729    0.4321600020    0.4166672834
C81        C   -0.1122634631    0.4999999896    0.4166666260
C82        C    0.1122634683    0.4999999896    0.4166667844
C83        C   -0.0000002363    0.4999999911    0.3792467289
C84        C    0.0000002416    0.4999999881    0.4540866815
O85        O    0.4419884691    1.0573705551    0.4166663221
O86        O    0.6153813721    1.0573682197    0.4166658909
O87        O    0.5286903858    1.0573658088    0.3877663875
O88        O    0.5286857825    1.0573729782    0.4455679314
O89        O    0.4713159548    0.9426341976    0.4455684806
O90        O    0.4713143352    0.9426272158    0.3877690434
O91        O    0.5580115444    0.9426294391    0.4166664402
O92        O    0.3846186414    0.9426317745    0.4166668714
Cu93      Cu    0.5339249823    1.0678399847    0.4166658030
Cu94      Cu    0.4660750312    0.9321600095    0.4166669593
C95        C    0.3877365410    0.9999999971    0.4166663019
C96        C    0.6122634725    0.9999999971    0.4166664604
C97        C    0.4999997681    0.9999999988    0.3792464048
C98        C    0.5000002455    0.9999999955    0.4540863575
O99        O    0.6153820999    0.5573705482    0.4166667983
O100       O    0.4419868615    0.5573682128    0.4166672295
O101       O    0.5286754355    0.5573657988    0.4455667329
O102       O    0.5286872111    0.5573729744    0.3877651890
O103       O    0.4713182570    0.4426341938    0.3877646387
O104       O    0.4713128919    0.4426272058    0.4455640760
O105       O    0.3846179074    0.4426294322    0.4166666792
O106       O    0.5580131458    0.4426317676    0.4166662480
Cu107     Cu    0.5339150165    0.5678399778    0.4166673175
Cu108     Cu    0.4660849908    0.4321600026    0.4166661600
C109       C    0.6122634694    0.4999999902    0.4166668180
C110       C    0.3877365379    0.4999999902    0.4166666595
C111       C    0.5000002421    0.4999999878    0.4540867151
C112       C    0.4999997652    0.4999999926    0.3792467624
O113       O   -0.0573705514    0.0580115397    0.0833330764
O114       O   -0.0573682159   -0.1153813633    0.0833335076
O115       O   -0.0573658054   -0.0286903770    0.1122330110
O116       O   -0.0573729741   -0.0286857736    0.0544314671
O117       O    0.0573658065    0.0286840541    0.0544309180
O118       O    0.0573727876    0.0286856736    0.1122303552
O119       O    0.0573705647   -0.0580115356    0.0833329584
O120       O    0.0573682293    0.1153813674    0.0833325272
Cu121     Cu   -0.0678399810   -0.0339249735    0.0833335955
Cu122     Cu    0.0678399943    0.0339249776    0.0833324393
C123       C    0.0000000067    0.1122634678    0.0833330966
C124       C    0.0000000067   -0.1122634637    0.0833329382
C125       C    0.0000000046    0.0000002407    0.1207529937
C126       C    0.0000000087   -0.0000002366    0.0459130411
O127       O   -0.0573705483    0.4713149066    0.0544332177
O128       O   -0.0573682171    0.4713173640    0.1122314338
O129       O   -0.0573658028    0.5580167934    0.0833347442
O130       O   -0.0573729747    0.3846091535    0.0833320143
O131       O    0.0573658059    0.4419768953    0.0833318694
O132       O    0.0573727902    0.6153781217    0.0833324937
O133       O    0.0573705636    0.5286851058    0.1122312889
O134       O    0.0573682323    0.5286826484    0.0544330728
Cu135     Cu   -0.0678399800    0.4660817473    0.0833339134
Cu136     Cu    0.0678399952    0.5339182652    0.0833305933
C137       C    0.0000000103    0.5000002464    0.0459109734
C138       C    0.0000000049    0.4999997660    0.1207535332
C139       C    0.0000000076    0.6122595612    0.0833321738
C140       C    0.0000000076    0.3877404512    0.0833323328
O141       O    0.4426294570   -0.0286854470    0.1122301413
O142       O    0.4426317976   -0.0286855685    0.0544319252
O143       O    0.4426342072   -0.1153825860    0.0833286149
O144       O    0.4426270353    0.0580178820    0.0833313447
O145       O    0.5573658159    0.1153889221    0.0833314912
O146       O    0.5573728002   -0.0580053200    0.0833308669
O147       O    0.5573705782    0.0286854715    0.0544320717
O148       O    0.5573682376    0.0286855931    0.1122302878
Cu149     Cu    0.4321600300   -0.0339217171    0.0833294456
Cu150     Cu    0.5678400052    0.0339217417    0.0833327675
C151       C    0.5000000143   -0.0000002283    0.1207523864
C152       C    0.5000000209    0.0000002528    0.0459098266
C153       C    0.5000000176   -0.1122595427    0.0833311860
C154       C    0.5000000176    0.1122595673    0.0833310270
O155       O    0.4426294567    0.5580115444    0.0833323924
O156       O    0.4426317921    0.3846186414    0.0833328237
O157       O    0.4426342030    0.4713096280    0.1122323270
O158       O    0.4426270336    0.4713142308    0.0544307832
O159       O    0.5573658143    0.5286840586    0.0544302339
O160       O    0.5573727960    0.5286856786    0.1122296712
O161       O    0.5573705727    0.4419884692    0.0833322744
O162       O    0.5573682373    0.6153813721    0.0833318431
Cu163     Cu    0.4321600271    0.4660750313    0.0833329116
Cu164     Cu    0.5678400023    0.5339249823    0.0833317552
C165       C    0.5000000147    0.6122634725    0.0833324126
C166       C    0.5000000147    0.3877365411    0.0833322542
C167       C    0.5000000130    0.5000002458    0.1207523097
C168       C    0.5000000164    0.4999997678    0.0459123571
O169       O   -0.1153820778    0.9419884527    0.9166664936
O170       O    0.0580131615    1.1153813566    0.9166660628
O171       O   -0.0286754118    1.0286903684    0.8877665592
O172       O   -0.0286871897    1.0286857680    0.9455681031
O173       O    0.0286817635    0.9713159412    0.9455686537
O174       O    0.0286871309    0.9713143187    0.8877692164
O175       O    0.1153821147    1.0580115298    0.9166666134
O176       O   -0.0580131246    0.8846186259    0.9166670442
Cu177     Cu   -0.0339149939    1.0339249663    0.9166659746
Cu178     Cu    0.0339150307    0.9660750163    0.9166671325
C179       C   -0.1122634479    0.8877365250    0.9166664740
C180       C    0.1122634847    1.1122634576    0.9166666330
C181       C   -0.0000002186    0.9999997507    0.8792465772
C182       C    0.0000002554    1.0000002319    0.9540865298
O183       O   -0.0286850756    0.5286854714    0.8877630354
O184       O   -0.0286826175    0.5286855972    0.9455612515
O185       O    0.0580168120    0.6153826130    0.9166645618
O186       O   -0.1153908288    0.4419821441    0.9166618320
O187       O   -0.0580230879    0.3846111050    0.9166616869
O188       O    0.1153781394    0.5580053479    0.9166623111
O189       O    0.0286851234    0.4713145580    0.9455611064
O190       O    0.0286826653    0.4713144323    0.8877628903
Cu191     Cu   -0.0339182345    0.5339217436    0.9166637310
Cu192     Cu    0.0339182823    0.4660782859    0.9166604107
C193       C    0.0000002637    0.5000002525    0.8792407910
C194       C   -0.0000002159    0.4999997769    0.9540833508
C195       C    0.1122595795    0.6122595703    0.9166619913
C196       C   -0.1122595317    0.3877404592    0.9166621504
O197       O    0.3846179395   -0.0580115135    0.9166592459
O198       O    0.5580131788    0.1153813903    0.9166588151
O199       O    0.4713246046    0.0286904029    0.8877593115
O200       O    0.4713128285    0.0286858009    0.9455608554
O201       O    0.5286817817   -0.0286840259    0.9455614055
O202       O    0.5286871473   -0.0286856468    0.8877619682
O203       O    0.6153821320    0.0580115635    0.9166593652
O204       O    0.4419868926   -0.1153813404    0.9166597960
Cu205     Cu    0.4660850234    0.0339250000    0.9166587270
Cu206     Cu    0.5339150480   -0.0339249500    0.9166598842
C207       C    0.3877365694   -0.1122634413    0.9166592261
C208       C    0.6122635020    0.1122634913    0.9166593851
C209       C    0.4999997976   -0.0000002146    0.8792393293
C210       C    0.5000002739    0.0000002646    0.9540792819
O211       O    0.3846179235    0.4419884533    0.9166663856
O212       O    0.5580131629    0.6153813572    0.9166659546
O213       O    0.4713245891    0.5286903688    0.8877664511
O214       O    0.4713128121    0.5286857688    0.9455679950
O215       O    0.5286817653    0.4713159420    0.9455685455
O216       O    0.5286871318    0.4713143191    0.8877691082
O217       O    0.6153821161    0.5580115304    0.9166665052
O218       O    0.4419868767    0.3846186265    0.9166669361
Cu219     Cu    0.4660850075    0.5339249668    0.9166658665
Cu220     Cu    0.5339150321    0.4660750169    0.9166670243
C221       C    0.3877365535    0.3877365256    0.9166663660
C222       C    0.6122634861    0.6122634582    0.9166665248
C223       C    0.4999997823    0.4999997510    0.8792464691
C224       C    0.5000002574    0.5000002327    0.9540864217
O225       O    0.1153821104    1.0573705464    0.5833335448
O226       O   -0.0580131280    1.0573682110    0.5833339761
O227       O    0.0286754466    1.0573657978    0.6122334795
O228       O    0.0286872210    1.0573729717    0.5544319356
O229       O   -0.0286817331    0.9426341910    0.5544313856
O230       O   -0.0286870970    0.9426272048    0.6122308229
O231       O   -0.1153820821    0.9426294303    0.5833334261
O232       O    0.0580131563    0.9426317658    0.5833329948
Cu233     Cu    0.0339150270    1.0678399760    0.5833340641
Cu234     Cu   -0.0339149987    0.9321600007    0.5833329069
C235       C    0.1122634799    0.9999999884    0.5833335646
C236       C   -0.1122634516    0.9999999884    0.5833334063
C237       C    0.0000002534    0.9999999871    0.6207534618
C238       C   -0.0000002251    0.9999999896    0.5459135091
O239       O    0.1153821073    0.5573705437    0.5833332748
O240       O   -0.0580131311    0.5573682083    0.5833337058
O241       O    0.0286754439    0.5573657970    0.6122332093
O242       O    0.0286872174    0.5573729672    0.5544316654
O243       O   -0.0286817367    0.4426341866    0.5544311160
O244       O   -0.0286870997    0.4426272040    0.6122305533
O245       O   -0.1153820852    0.4426294277    0.5833331564
O246       O    0.0580131532    0.4426317631    0.5833327254
Cu247     Cu    0.0339150239    0.5678399733    0.5833337938
Cu248     Cu   -0.0339150018    0.4321599981    0.5833326374
C249       C    0.1122634767    0.4999999857    0.5833332950
C250       C   -0.1122634547    0.4999999857    0.5833331362
C251       C    0.0000002509    0.4999999868    0.6207531919
C252       C   -0.0000002288    0.4999999846    0.5459132393
O253       O    0.6153821102    1.0573705500    0.5833329358
O254       O    0.4419868718    1.0573682145    0.5833333669
O255       O    0.5286754467    1.0573658028    0.6122328703
O256       O    0.5286872205    1.0573729738    0.5544313265
O257       O    0.4713182664    0.9426341932    0.5544307769
O258       O    0.4713129031    0.9426272098    0.6122302142
O259       O    0.3846179177    0.9426294339    0.5833328173
O260       O    0.5580131561    0.9426317693    0.5833323863
Cu261     Cu    0.5339150268    1.0678399796    0.5833334549
Cu262     Cu    0.4660850012    0.9321600043    0.5833322983
C263       C    0.6122634797    0.9999999919    0.5833329559
C264       C    0.3877365483    0.9999999919    0.5833327972
C265       C    0.5000002536    0.9999999925    0.6207528529
C266       C    0.4999997744    0.9999999913    0.5459129003
O267       O    0.4419884741    0.5573705410    0.5833336500
O268       O    0.6153813771    0.5573682055    0.5833332187
O269       O    0.5286903902    0.5573657940    0.5544337154
O270       O    0.5286857880    0.5573729647    0.6122352592
O271       O    0.4713159603    0.4426341840    0.6122358087
O272       O    0.4713143396    0.4426272010    0.5544363715
O273       O    0.5580115494    0.4426294249    0.5833337682
O274       O    0.3846186464    0.4426317603    0.5833341995
Cu275     Cu    0.5339249873    0.5678399706    0.5833331308
Cu276     Cu    0.4660750362    0.4321599953    0.5833342874
C277       C    0.3877365460    0.4999999829    0.5833336299
C278       C    0.6122634775    0.4999999829    0.5833337883
C279       C    0.4999997723    0.4999999838    0.5459137328
C280       C    0.5000002512    0.4999999821    0.6207536854
O281       O    0.0580115593    1.1153820803    0.7500004062
O282       O   -0.1153813446    0.9419868410    0.7500008370
O283       O   -0.0286903576    1.0286754157    0.7789003406
O284       O   -0.0286857547    1.0286871908    0.7210987968
O285       O    0.0286840721    0.9713182376    0.7210982470
O286       O    0.0286856921    0.9713128730    0.7788976843
O287       O   -0.0580115178    0.8846178878    0.7500002873
O288       O    0.1153813861    1.0580131271    0.7499998565
Cu289     Cu   -0.0339249543    1.0339149964    0.7500009252
Cu290     Cu    0.0339249957    0.9660849718    0.7499997683
C291       C    0.1122634870    1.1122634504    0.7500004262
C292       C   -0.1122634456    0.8877365178    0.7500002673
C293       C    0.0000002597    1.0000002229    0.7874203231
C294       C   -0.0000002182    0.9999997453    0.7125803704
O295       O   -0.1153820776    0.4419884609    0.7499973808
O296       O    0.0580131617    0.6153813648    0.7499969495
O297       O   -0.0286754131    0.5286903764    0.7210974461
O298       O   -0.0286871879    0.5286857763    0.7788989900
O299       O    0.0286817653    0.4713159495    0.7788995402
O300       O    0.0286871296    0.4713143268    0.7211001029
O301       O    0.1153821149    0.5580115380    0.7499974997
O302       O   -0.0580131244    0.3846186341    0.7499979310
Cu303     Cu   -0.0339149936    0.5339249745    0.7499968615
Cu304     Cu    0.0339150310    0.4660750245    0.7499980189
C305       C   -0.1122634476    0.3877365332    0.7499973611
C306       C    0.1122634850    0.6122634658    0.7499975194
C307       C   -0.0000002203    0.4999997587    0.7125774639
C308       C    0.0000002576    0.5000002403    0.7874174165
O309       O    0.5580115592    0.1153820988    0.7499969805
O310       O    0.3846186553   -0.0580131406    0.7499974120
O311       O    0.4713096428    0.0286754357    0.7788969153
O312       O    0.4713142448    0.0286872076    0.7210953714
O313       O    0.5286840716   -0.0286817456    0.7210948220
O314       O    0.5286856925   -0.0286871070    0.7788942593
O315       O    0.4419884822   -0.1153820938    0.7499968627
O316       O    0.6153813861    0.0580131456    0.7499964312
Cu317     Cu    0.4660750457    0.0339150148    0.7499974998
Cu318     Cu    0.5339249957   -0.0339150098    0.7499963434
C319       C    0.6122634870    0.1122634688    0.7499970006
C320       C    0.3877365544   -0.1122634638    0.7499968426
C321       C    0.5000002603    0.0000002434    0.7874168979
C322       C    0.4999997811   -0.0000002384    0.7125769453
O323       O    0.3846179240    0.4419884444    0.7500003086
O324       O    0.5580131633    0.6153813483    0.7499998776
O325       O    0.4713245884    0.5286903611    0.7211003741
O326       O    0.4713128138    0.5286857586    0.7789019180
O327       O    0.5286817670    0.4713159318    0.7789024677
O328       O    0.5286871311    0.4713143114    0.7211030304
O329       O    0.6153821165    0.5580115215    0.7500004274
O330       O    0.4419868772    0.3846186176    0.7500008583
Cu331     Cu    0.4660850080    0.5339249579    0.7499997896
Cu332     Cu    0.5339150326    0.4660750079    0.7500009464
C333       C    0.3877365540    0.3877365166    0.7500002886
C334       C    0.6122634866    0.6122634492    0.7500004474
C335       C    0.4999997812    0.4999997437    0.7125803917
C336       C    0.5000002594    0.5000002221    0.7874203443
C807       C    0.1811870496    0.7500005391    0.7499969073
C808       C    0.1811859724    0.6811859535    0.7499973501
C809       C    0.2499989425    0.6811854153    0.7499976238
C810       C    0.3188129897    0.7499994629    0.7499974547
C811       C    0.3188140670    0.8188140485    0.7499970119
C812       C    0.2500010969    0.8188145866    0.7499967382
H813       H    0.1302475783    0.7500009374    0.7499967047
H814       H    0.2500003228    0.6302491036    0.7499979515
H815       H    0.3697524611    0.7499990645    0.7499976573
H816       H    0.2499997166    0.8697508984    0.7499964104
C797       C   -0.2499994422    0.1811870310    0.7499964550
C798       C   -0.3188140278    0.1811859537    0.7499970908
C799       C   -0.3188145660    0.2499989237    0.7499978166
C800       C   -0.2500005184    0.3188129710    0.7499979067
C801       C   -0.1811859328    0.3188140483    0.7499972709
C802       C   -0.1811853947    0.2500010783    0.7499965451
H803       H   -0.2499990439    0.1302475597    0.7499959178
H804       H   -0.3697508777    0.2500003041    0.7499982873
H805       H   -0.2500009168    0.3697524423    0.7499984440
H806       H   -0.1302490829    0.2499996979    0.7499960745
C787       C   -0.2500005180    0.8188129533    0.7500001603
C788       C   -0.1811859322    0.8188140310    0.7500003123
C789       C   -0.1811853936    0.7500010612    0.7500005094
C790       C   -0.2499994409    0.6811870137    0.7500005544
C791       C   -0.3188140268    0.6811859360    0.7500004023
C792       C   -0.3188145654    0.7499989058    0.7500002053
H793       H   -0.2500009167    0.8697524245    0.7500000144
H794       H   -0.1302490817    0.7499996811    0.7500006219
H795       H   -0.2499990423    0.6302475425    0.7500007002
H796       H   -0.3697508773    0.7500002859    0.7500000927
C777       C    0.1811870507    1.2500005220    0.7500003256
C778       C    0.1811859730    1.1811859362    0.7500003918
C779       C    0.2499989428    1.1811853976    0.7500004236
C780       C    0.3188129903    1.2499994449    0.7500003892
C781       C    0.3188140680    1.3188140308    0.7500003230
C782       C    0.2500010982    1.3188145694    0.7500002913
H783       H    0.1302475795    1.2500009207    0.7500003021
H784       H    0.2500003229    1.1302490857    0.7500004725
H785       H    0.3697524615    1.2499990463    0.7500004127
H786       H    0.2499997181    1.3697508813    0.7500002423
C767       C    0.4388328644    0.4967183658    0.6551982358
C768       C    0.5000001336    0.4999999225    0.6437289465
C769       C    0.5611672853    0.5032814196    0.6551977492
C770       C    0.5611671679    0.5032813600    0.6781358413
C771       C    0.4999998988    0.4999998034    0.6896051306
C772       C    0.4388327470    0.4967183062    0.6781363279
H773       H    0.3935532845    0.4942892056    0.6467083429
H774       H    0.6064450163    0.5057105200    0.6467085849
H775       H    0.6064467478    0.5057105202    0.6866257342
H776       H    0.3935550160    0.4942892058    0.6866254922
C757       C    0.4703510469    0.9313964407    0.6551961100
C758       C    0.5000001354    0.9999999348    0.6437268070
C759       C    0.5296491059    1.0686033712    0.6551955961
C760       C    0.5296489878    1.0686033135    0.6781336882
C761       C    0.4999998993    0.9999998194    0.6896029912
C762       C    0.4703509289    0.9313963830    0.6781342021
H763       H    0.4484031077    0.8806120787    0.6467062271
H764       H    0.5515961941    1.1193856048    0.6467064217
H765       H    0.5515969270    1.1193876755    0.6866235710
H766       H    0.4484038406    0.8806141494    0.6866233764
C747       C    0.2155132065    0.4998392405    0.6031981814
C748       C    0.1811859647    0.4999999850    0.5833333788
C749       C    0.2156727696    0.5001607288    0.5634686598
C750       C    0.2844868163    0.5001607282    0.5634687435
C751       C    0.3188140581    0.4999999836    0.5833335461
C752       C    0.2843272532    0.4998392398    0.6031982651
H753       H    0.1899840132    0.4997202483    0.6179032331
H754       H    0.1902649586    0.5002797165    0.5487641749
H755       H    0.3100160096    0.5002797204    0.5487636918
H756       H    0.3097350641    0.4997202522    0.6179027500
C737       C   -0.2156172258    0.4999539251    0.5634685703
C738       C   -0.1811859412    0.4999999850    0.5833332994
C739       C   -0.2155687040    0.5000460442    0.6031981914
C740       C   -0.2843827514    0.5000460435    0.6031983542
C741       C   -0.3188140360    0.4999999836    0.5833336252
C742       C   -0.2844312732    0.4999539244    0.5634687332
H743       H   -0.1901650508    0.4999198293    0.5487633905
H744       H   -0.1900838777    0.5000801391    0.6179026219
H745       H   -0.3098349265    0.5000801393    0.6179035340
H746       H   -0.3099160996    0.4999198296    0.5487643027
C727       C    0.0595441170    0.4998996207    0.6551965769
C728       C    0.0000001330    0.4999999297    0.6437272358
C729       C   -0.0595439687    0.5001001818    0.6551959868
C730       C   -0.0595440864    0.5001001248    0.6781340789
C731       C   -0.0000001024    0.4999998158    0.6896034200
C732       C    0.0595439993    0.4998995637    0.6781346690
H733       H    0.1036222183    0.4998254081    0.6467067223
H734       H   -0.1036200985    0.5001744334    0.6467067843
H735       H   -0.1036221877    0.5001743374    0.6866239336
H736       H    0.1036201291    0.4998253121    0.6866238716
C717       C   -0.2152670431    1.0006540292    0.6031971551
C718       C   -0.1811859393    0.9999999893    0.5833332936
C719       C   -0.2159188822    0.9993459502    0.5634693196
C720       C   -0.2847329288    0.9993459511    0.5634692071
C721       C   -0.3188140325    0.9999999910    0.5833330686
C722       C   -0.2840810897    1.0006540301    0.6031970426
H723       H   -0.1895556439    1.0011381879    0.6179016553
H724       H   -0.1906932695    0.9988618115    0.5487655314
H725       H   -0.3104443280    0.9988617924    0.5487647069
H726       H   -0.3093067024    1.0011381688    0.6179008308
C707       C    0.2156701669    1.0001537231    0.5634685114
C708       C    0.1811859666    0.9999999893    0.5833333726
C709       C    0.2155158137    0.9998462563    0.6031980422
C710       C    0.2843298612    0.9998462572    0.6031978505
C711       C    0.3188140616    0.9999999910    0.5833329892
C712       C    0.2844842144    1.0001537240    0.5634683197
H713       H    0.1902571632    1.0002675254    0.5487634962
H714       H    0.1899918177    0.9997324582    0.6179025705
H715       H    0.3097428650    0.9997324549    0.6179028656
H716       H    0.3100082105    1.0002675221    0.5487637913
C697       C   -0.0375917471    1.0311200672    0.6551981236
C698       C    0.0000001354    0.9999999266    0.6437288240
C699       C    0.0375919000    0.9688797256    0.6551976165
C700       C    0.0375917822    0.9688796652    0.6781357086
C701       C   -0.0000001002    0.9999998058    0.6896050082
C702       C   -0.0375918649    1.0311200068    0.6781362157
H703       H   -0.0654194170    1.0541570991    0.6467082383
H704       H    0.0654184675    0.9458437233    0.6467084446
H705       H    0.0654194521    0.9458426333    0.6866255939
H706       H   -0.0654184323    1.0541560091    0.6866253876
C687       C    0.4312985228    0.4622494293    0.8448021527
C688       C    0.4999999016    0.4999998689    0.8562714988
C689       C    0.5687013997    0.5377504261    0.8448027527
C690       C    0.5687015189    0.5377505438    0.8218646606
C691       C    0.5000001400    0.5000001043    0.8103953146
C692       C    0.4312986420    0.4622495470    0.8218640606
H693       H    0.3804415697    0.4343042116    0.8532920037
H694       H    0.6195560904    0.5656943620    0.8532919590
H695       H    0.6195584720    0.5656957615    0.8133748097
H696       H    0.3804439513    0.4343056111    0.8133748544
C677       C    0.4686236777    0.0373506675    0.8447968917
C678       C    0.4999999133   -0.0000001000    0.8562662057
C679       C    0.5313762645   -0.0373507531    0.8447974276
C680       C    0.5313763801   -0.0373506387    0.8218593355
C681       C    0.5000001445    0.0000001288    0.8103900215
C682       C    0.4686237933    0.0373507819    0.8218587996
H683       H    0.4453970281    0.0649998522    0.8532867664
H684       H    0.5546018356   -0.0649988405    0.8532866101
H685       H    0.5546030297   -0.0649998235    0.8133694608
H686       H    0.4453982223    0.0649988693    0.8133696171
C667       C   -0.3188109848    0.2500025133    0.9166591705
C668       C   -0.3188120620    0.1811879276    0.9166600770
C669       C   -0.2499990921    0.1811873896    0.9166616742
C670       C   -0.1811850449    0.2500014372    0.9166623650
C671       C   -0.1811839676    0.3188160228    0.9166614585
C672       C   -0.2499969376    0.3188165608    0.9166598612
H673       H   -0.3697504560    0.2500029116    0.9166579881
H674       H   -0.2499977117    0.1302510779    0.9166623453
H675       H   -0.1302455737    0.2500010389    0.9166635474
H676       H   -0.2499983179    0.3697528726    0.9166591902
C657       C    0.1811851047    0.7499986032    0.9166603073
C658       C    0.1811840269    0.6811840173    0.9166612995
C659       C    0.2499969966    0.6811834786    0.9166616009
C660       C    0.3188110442    0.7499975258    0.9166609102
C661       C    0.3188121220    0.8188121117    0.9166599180
C662       C    0.2499991523    0.8188126504    0.9166596165
H663       H    0.1302456336    0.7499990020    0.9166600841
H664       H    0.2499983766    0.6302471667    0.9166623354
H665       H    0.3697505153    0.7499971270    0.9166611333
H666       H    0.2499977723    0.8697489623    0.9166588821
C647       C   -0.0640716881    0.4897027914    0.8447978806
C648       C    0.0000002622    0.5000002495    0.8562671958
C649       C    0.0640722110    0.5102977045    0.8447984190
C650       C    0.0640722094    0.5102977014    0.8218603269
C651       C    0.0000002591    0.5000002433    0.8103910117
C652       C   -0.0640716896    0.4897027883    0.8218597885
H653       H   -0.1115015723    0.4820800001    0.8532877544
H654       H    0.1115000685    0.5179201722    0.8532876024
H655       H    0.1115020936    0.5179204927    0.8133704531
H656       H   -0.1114995472    0.4820803206    0.8133706051
C637       C   -0.1811870109    0.7499994534    0.9166665825
C638       C   -0.1811859336    0.8188140391    0.9166664867
C639       C   -0.2499989036    0.8188145773    0.9166664035
C640       C   -0.3188129509    0.7500005297    0.9166664162
C641       C   -0.3188140282    0.6811859441    0.9166665121
C642       C   -0.2500010582    0.6811854059    0.9166665952
H643       H   -0.1302475395    0.7499990550    0.9166666441
H644       H   -0.2500002839    0.8697508890    0.9166663326
H645       H   -0.3697524222    0.7500009281    0.9166663546
H646       H   -0.2499996778    0.6302490941    0.9166666662
C627       C    0.1811870493    1.2500005301    0.9166662643
C628       C    0.1811859716    1.1811859443    0.9166665662
C629       C    0.2499989414    1.1811854057    0.9166668014
C630       C    0.3188129889    1.2499994530    0.9166667347
C631       C    0.3188140666    1.3188140389    0.9166664328
C632       C    0.2500010968    1.3188145775    0.9166661976
H633       H    0.1302475781    1.2500009288    0.9166660902
H634       H    0.2500003215    1.1302490938    0.9166670249
H635       H    0.3697524601    1.2499990543    0.9166669088
H636       H    0.2499997168    1.3697508894    0.9166659741
C617       C    0.0263401182    1.0682256266    0.8448022538
C618       C   -0.0000000989    0.9999998688    0.8562715422
C619       C   -0.0263401966    0.9317742290    0.8448027385
C620       C   -0.0263400771    0.9317743470    0.8218646464
C621       C    0.0000001400    1.0000001047    0.8103953580
C622       C    0.0263402377    1.0682257446    0.8218641617
H623       H    0.0458386320    1.1187303210    0.8532921475
H624       H   -0.0458379652    0.8812716064    0.8532919021
H625       H   -0.0458385909    0.8812696525    0.8133747528
H626       H    0.0458380064    1.1187283672    0.8133749982
C607       C    0.4550393814    0.5226346998    0.0114681751
C608       C    0.5000000767    0.4999998841    0.0229374815
C609       C    0.5449608321    0.4773651846    0.0114686958
C610       C    0.5449608923    0.4773653007   -0.0114693963
C611       C    0.5000001971    0.5000001164   -0.0229387027
C612       C    0.4550394416    0.5226348159   -0.0114699170
H613       H    0.4217567443    0.5393902566    0.0199580554
H614       H    0.5782420018    0.4606102581    0.0199578726
H615       H    0.5782435294    0.4606097439   -0.0199592767
H616       H    0.4217582719    0.5393897424   -0.0199590939
C597       C    0.4337452815   -0.0170275664    0.0114633136
C598       C    0.5000000842    0.0000002558    0.0229326463
C599       C    0.5662549501    0.0170280808    0.0114638871
C600       C    0.5662550133    0.0170280838   -0.0114742050
C601       C    0.5000002106    0.0000002616   -0.0229435378
C602       C    0.4337453446   -0.0170275634   -0.0114747785
H603       H    0.3846994716   -0.0296325797    0.0199531743
H604       H    0.6152986164    0.0296325532    0.0199530835
H605       H    0.6153008232    0.0296330971   -0.0199640658
H606       H    0.3847016783   -0.0296320357   -0.0199639750
C587       C    0.4311865079    0.1811850835    0.0833310006
C588       C    0.5000000169    0.1811840075    0.0833313341
C589       C    0.5688135252    0.2499969781    0.0833319741
C590       C    0.5688135244    0.3188110248    0.0833322807
C591       C    0.5000000154    0.3188121008    0.0833319472
C592       C    0.4311865072    0.2499991302    0.0833313071
H593       H    0.3802466381    0.1302456118    0.0833305268
H594       H    0.6197512177    0.2499983594    0.0833322210
H595       H    0.6197533942    0.3697504965    0.0833327545
H596       H    0.3802488146    0.2499977490    0.0833310602
C577       C    0.4311865080   -0.2499985734    0.0833301724
C578       C    0.5000000169   -0.1811839877    0.0833314929
C579       C    0.5688135250   -0.1811834494    0.0833331198
C580       C    0.5688135243   -0.2499974968    0.0833334262
C581       C    0.5000000154   -0.3188120825    0.0833321057
C582       C    0.4311865073   -0.3188126208    0.0833304788
H583       H    0.3802466384   -0.2499989720    0.0833289680
H584       H    0.6197512174   -0.1302471375    0.0833340973
H585       H    0.6197533939   -0.2499970982    0.0833346306
H586       H    0.3802488149   -0.3697489327    0.0833295013
C567       C    0.0516606149    0.4864622289    0.0114659452
C568       C   -0.0000000463    0.5000001290    0.0229352542
C569       C   -0.0516607639    0.5135379117    0.0114664711
C570       C   -0.0516608204    0.5135377944   -0.0114716210
C571       C   -0.0000001593    0.4999998944   -0.0229409300
C572       C    0.0516605583    0.4864621116   -0.0114721469
H573       H    0.0899029643    0.4764407534    0.0199558236
H574       H   -0.0899014366    0.5235590456    0.0199556499
H575       H   -0.0899031699    0.5235592700   -0.0199614994
H576       H    0.0899012310    0.4764409777   -0.0199613257
C557       C    0.0601100529    0.0010450978    0.0114685635
C558       C    0.0000000705   -0.0000001194    0.0229378776
C559       C   -0.0601098504   -0.0010452195    0.0114690995
C560       C   -0.0601097888   -0.0010451025   -0.0114689926
C561       C    0.0000001937    0.0000001147   -0.0229383066
C562       C    0.0601101145    0.0010452148   -0.0114695286
H563       H    0.1046070073    0.0018187433    0.0199584382
H564       H   -0.1046049481   -0.0018189187    0.0199582820
H565       H   -0.1046067431   -0.0018187481   -0.0199588673
H566       H    0.1046052122    0.0018189139   -0.0199587111
C547       C    0.0688135159   -0.2500014119    0.0833327717
C548       C    0.0000000074   -0.3188159982    0.0833323651
C549       C   -0.0688135014   -0.3188165375    0.0833321494
C550       C   -0.0688135016   -0.2500024906    0.0833323403
C551       C    0.0000000069   -0.1811879043    0.0833327469
C552       C    0.0688135157   -0.1811873650    0.0833329626
H553       H    0.1197533860   -0.2500010127    0.0833329313
H554       H   -0.1197511936   -0.3697528497    0.0833318484
H555       H   -0.1197533718   -0.2500028898    0.0833321807
H556       H    0.1197512079   -0.1302510528    0.0833332636
C537       C    0.0688135159    0.3188149296    0.0833322689
C538       C    0.0000000074    0.3188160067    0.0833325239
C539       C   -0.0688135014    0.2500030365    0.0833329697
C540       C   -0.0688135016    0.1811889893    0.0833331605
C541       C    0.0000000069    0.1811879123    0.0833329055
C542       C    0.0688135157    0.2500008825    0.0833324597
H543       H    0.1197533860    0.3697544011    0.0833319389
H544       H   -0.1197511936    0.2500016560    0.0833331585
H545       H   -0.1197533718    0.1302495179    0.0833334905
H546       H    0.1197512079    0.2500022630    0.0833322710
C527       C    0.5197154193    0.5669536598    0.4885314396
C528       C    0.5000001246    0.4999999868    0.4770621318
C529       C    0.4802847125    0.4330463128    0.4885309161
C530       C    0.4802845951    0.4330463118    0.5114690082
C531       C    0.4999998899    0.4999999848    0.5229383160
C532       C    0.5197153020    0.5669536588    0.5114695317
H533       H    0.5343099452    0.6165167691    0.4800415604
H534       H    0.4656908974    0.3834853231    0.4800417382
H535       H    0.4656900693    0.3834832024    0.5199588875
H536       H    0.5343091170    0.6165146485    0.5199587097
C517       C    0.4474955535    1.0122695627    0.4885308189
C518       C    0.5000001276    0.9999999944    0.4770615368
C519       C    0.5525045840    0.9877304252    0.4885303467
C520       C    0.5525044663    0.9877304241    0.5114684388
C521       C    0.4999998922    0.9999999924    0.5229377209
C522       C    0.4474954358    1.0122695616    0.5114689110
H523       H    0.4086286182    1.0213522308    0.4800409206
H524       H    0.5913699448    0.9786481461    0.4800411878
H525       H    0.5913714016    0.9786477560    0.5199583371
H526       H    0.4086300751    1.0213518407    0.5199580699
C507       C   -0.0611908450    0.4966667509    0.4885311499
C508       C    0.0000001239    0.4999999872    0.4770618683
C509       C    0.0611909752    0.5033332226    0.4885306788
C510       C    0.0611908577    0.5033332217    0.5114687709
C511       C   -0.0000001111    0.4999999855    0.5229380525
C512       C   -0.0611909625    0.4966667501    0.5114692420
H513       H   -0.1064879688    0.4941992910    0.4800412512
H514       H    0.1064862494    0.5058005777    0.4800415203
H515       H    0.1064879815    0.5058006817    0.5199586696
H516       H   -0.1064862367    0.4941993949    0.5199584005
C497       C    0.2165012009    0.5018149786    0.3968088334
C498       C    0.1811859560    0.4999999898    0.4166667532
C499       C    0.2146847583    0.4981850010    0.4365246417
C500       C    0.2834988054    0.4981850012    0.4365246105
C501       C    0.3188140503    0.4999999901    0.4166666908
C502       C    0.2853152480    0.5018149788    0.3968088022
H503       H    0.1917033862    0.5031585417    0.3821088380
H504       H    0.1885455997    0.4968414953    0.4512240318
H505       H    0.3082966201    0.4968414381    0.4512246059
H506       H    0.3114544066    0.5031584845    0.3821094121
C487       C   -0.2157012205    0.4997853607    0.3968019796
C488       C   -0.1811859499    0.4999999898    0.4166666740
C489       C   -0.2154847263    0.5002146189    0.4365314163
C490       C   -0.2842987733    0.5002146191    0.4365314643
C491       C   -0.3188140438    0.4999999901    0.4166667699
C492       C   -0.2845152674    0.4997853609    0.3968020276
H493       H   -0.1903112172    0.4996264794    0.3820969106
H494       H   -0.1899377311    0.5003734934    0.4512358212
H495       H   -0.3096887766    0.5003735004    0.4512365333
H496       H   -0.3100622626    0.4996264864    0.3820976228
C477       C   -0.2155051690    1.0001771350    0.3968017496
C478       C   -0.1811859471    0.9999999955    0.4166665064
C479       C   -0.2156807719    0.9998228566    0.4365312479
C480       C   -0.2844948187    0.9998228571    0.4365312326
C481       C   -0.3188140406    0.9999999966    0.4166664757
C482       C   -0.2843192158    1.0001771355    0.3968017342
H483       H   -0.1899700390    1.0003082638    0.3820966812
H484       H   -0.1902788975    0.9996917330    0.4512356989
H485       H   -0.3100299488    0.9996917283    0.4512363010
H486       H   -0.3097210903    1.0003082591    0.3820972832
C467       C    0.2155544234    0.9999217528    0.3968017361
C468       C    0.1811859588    0.9999999955    0.4166665854
C469       C    0.2156315415    1.0000782389    0.4365313403
C470       C    0.2844455888    1.0000782394    0.4365312459
C471       C    0.3188140534    0.9999999966    0.4166663965
C472       C    0.2843684707    0.9999217533    0.3968016416
H473       H    0.1900557453    0.9998638324    0.3820966578
H474       H    0.1901932163    1.0001361564    0.4512358599
H475       H    0.3099442670    1.0001361597    0.4512363242
H476       H    0.3098067960    0.9998638358    0.3820971220
C457       C    0.0386475064    0.9700159445    0.4885312967
C458       C    0.0000001271    0.9999999927    0.4770619511
C459       C   -0.0386473695    1.0299840398    0.4885306976
C460       C   -0.0386474869    1.0299840388    0.5114687897
C461       C   -0.0000001076    0.9999999906    0.5229381353
C462       C    0.0386473891    0.9700159435    0.5114693888
H463       H    0.0672566923    0.9478199616    0.4800414454
H464       H   -0.0672552454    1.0521790746    0.4800414917
H465       H   -0.0672566727    1.0521800217    0.5199586410
H466       H    0.0672552650    0.9478209087    0.5199585947
C447       C    0.4337014807    0.4828150999    0.1781347400
C448       C    0.5000000079    0.5000002447    0.1896040558
C449       C    0.5662985369    0.5171853900    0.1781352795
C450       C    0.5662985386    0.5171853903    0.1551971874
C451       C    0.5000000113    0.5000002454    0.1437278716
C452       C    0.4337014824    0.4828151002    0.1551966479
H453       H    0.3846233488    0.4700936287    0.1866246133
H454       H    0.6153745693    0.5299063170    0.1866244633
H455       H    0.6153766704    0.5299068614    0.1467073140
H456       H    0.3846254500    0.4700941732    0.1467074640
C437       C    0.5688046108    0.5334485034    0.3218644049
C438       C    0.4999999441    0.4999998216    0.3103950743
C439       C    0.4311952178    0.4665511968    0.3218638357
C440       C    0.4311951582    0.4665512537    0.3448019278
C441       C    0.4999998249    0.4999999356    0.3562712585
C442       C    0.5688045512    0.5334485604    0.3448024970
H443       H    0.6197379796    0.5582091738    0.3133745426
H444       H    0.3802640705    0.4417915428    0.3133746409
H445       H    0.3802617893    0.4417905834    0.3532917902
H446       H    0.6197356984    0.5582082143    0.3532916918
C427       C    0.5644236901    0.0112675956    0.3218647522
C428       C    0.4999999456   -0.0000001752    0.3103954141
C429       C    0.4355761420   -0.0112678880    0.3218641681
C430       C    0.4355760829   -0.0112678300    0.3448022602
C431       C    0.4999998273   -0.0000000593    0.3562715983
C432       C    0.5644236309    0.0112676536    0.3448028443
H433       H    0.6121140382    0.0196086298    0.3133748953
H434       H    0.3878878765   -0.0196086085    0.3133749678
H435       H    0.3878857347   -0.0196088642    0.3532921171
H436       H    0.6121118964    0.0196083740    0.3532920446
C417       C    0.5688135141    0.3188110206    0.2499996928
C418       C    0.5000000053    0.3188120971    0.2499995670
C419       C    0.4311864968    0.2499991267    0.2499993351
C420       C    0.4311864970    0.1811850798    0.2499992289
C421       C    0.5000000058    0.1811840033    0.2499993547
C422       C    0.5688135143    0.2499969737    0.2499995866
H423       H    0.6197533840    0.3697504922    0.2499998645
H424       H    0.3802488044    0.2499977458    0.2499992419
H425       H    0.3802466271    0.1302456082    0.2499990572
H426       H    0.6197512067    0.2499983546    0.2499996797
C407       C    0.5688135140   -0.1811850691    0.2500015557
C408       C    0.5000000058   -0.1811839919    0.2499994340
C409       C    0.4311864974   -0.2499969619    0.2499973392
C410       C    0.4311864971   -0.3188110090    0.2499973660
C411       C    0.5000000053   -0.3188120863    0.2499994877
C412       C    0.5688135137   -0.2499991163    0.2500015826
H413       H    0.6197533838   -0.1302455978    0.2500031064
H414       H    0.3802488055   -0.2499983422    0.2499957686
H415       H    0.3802466273   -0.3697504803    0.2499958153
H416       H    0.6197512056   -0.2499977359    0.2500031531
C397       C    0.4312663649   -0.0314964307    0.1781339918
C398       C    0.5000000091    0.0000001277    0.1896033092
C399       C    0.5687336550    0.0314965675    0.1781345346
C400       C    0.5687336567    0.0314964489    0.1551964425
C401       C    0.5000000125   -0.0000001095    0.1437271250
C402       C    0.4312663666   -0.0314965493    0.1551958997
H403       H    0.3803856140   -0.0548119771    0.1866238639
H404       H    0.6196122294    0.0548112049    0.1866237196
H405       H    0.6196144076    0.0548119953    0.1467065703
H406       H    0.3803877922   -0.0548111867    0.1467067146
C387       C    1.0633139547    0.5083122090    0.3218651973
C388       C    0.9999999404    0.4999998174    0.3103958585
C389       C    0.9366858672    0.4916874837    0.3218646118
C390       C    0.9366858084    0.4916875416    0.3448027039
C391       C    0.9999998226    0.4999999332    0.3562720427
C392       C    1.0633138958    0.5083122669    0.3448032894
H393       H    1.1101828140    0.5144654951    0.3133753409
H394       H    0.8898190552    0.4855344179    0.3133754110
H395       H    0.8898169490    0.4855342555    0.3532925603
H396       H    1.1101807079    0.5144653327    0.3532924902
C377       C    0.9349391666    0.4480585643    0.1781348605
C378       C    1.0000000016    0.5000001206    0.1896041650
C379       C    1.0650608376    0.5519415588    0.1781353773
C380       C    1.0650608387    0.5519414406    0.1551972852
C381       C    1.0000000038    0.4999998843    0.1437279808
C382       C    0.9349391678    0.4480584462    0.1551967684
H383       H    0.8867772491    0.4096084088    0.1866247422
H384       H    1.1132206954    0.5903901580    0.1866245528
H385       H    1.1132227563    0.5903915962    0.1467074035
H386       H    0.8867793100    0.4096098470    0.1467075930
C367       C    0.0480009729   -0.0187008832    0.3218645521
C368       C   -0.0000000586   -0.0000001802    0.3103952084
C369       C   -0.0480011483    0.0187005816    0.3218639567
C370       C   -0.0480012066    0.0187006404    0.3448020488
C371       C   -0.0000001752   -0.0000000626    0.3562713925
C372       C    0.0480009145   -0.0187008243    0.3448026442
H373       H    0.0835342471   -0.0325443042    0.3133746994
H374       H   -0.0835328603    0.0325433672    0.3133747522
H375       H   -0.0835344809    0.0325440614    0.3532919015
H376       H    0.0835326265   -0.0325436100    0.3532918487
C357       C    0.0688135086    0.3188149253    0.2499999328
C358       C   -0.0000000001    0.3188160020    0.2499999589
C359       C   -0.0688135087    0.2500030317    0.2499999722
C360       C   -0.0688135087    0.1811889847    0.2499999595
C361       C   -0.0000000000    0.1811879079    0.2499999334
C362       C    0.0688135086    0.2500008782    0.2499999200
H363       H    0.1197533786    0.3697543968    0.2499999229
H364       H   -0.1197512010    0.2500016510    0.2499999915
H365       H   -0.1197533787    0.1302495131    0.2499999693
H366       H    0.1197512009    0.2500022590    0.2499999007
C347       C   -0.0688135087   -0.2500024948    0.2500000907
C348       C   -0.0000000000   -0.1811879087    0.2500000128
C349       C    0.0688135086   -0.1811873696    0.2499998684
C350       C    0.0688135086   -0.2500014167    0.2499998018
C351       C   -0.0000000001   -0.3188160028    0.2499998797
C352       C   -0.0688135087   -0.3188165419    0.2500000242
H353       H   -0.1197533787   -0.2500028939    0.2500001976
H354       H    0.1197512009   -0.1302510575    0.2499998107
H355       H    0.1197533786   -0.2500010176    0.2499996949
H356       H   -0.1197512010   -0.3697528540    0.2500000818
C337       C   -0.0608509776   -0.0582522688    0.1781352852
C338       C    0.0000000013    0.0000002395    0.1896046008
C339       C    0.0608509812    0.0582527482    0.1781358243
C340       C    0.0608509823    0.0582527486    0.1551977322
C341       C    0.0000000035    0.0000002403    0.1437284166
C342       C   -0.0608509764   -0.0582522684    0.1551971931
H343       H   -0.1058965081   -0.1013742557    0.1866251587
H344       H    0.1058945852    0.1013728913    0.1866250080
H345       H    0.1058965129    0.1013747356    0.1467078587
H346       H   -0.1058945804   -0.1013724115    0.1467080094
loop_
_geom_bond_atom_site_label_1
_geom_bond_atom_site_label_2
_geom_bond_distance
_geom_bond_site_symmetry_2
_ccdc_geom_bond_type
O309       C319 1.250       .   A
O309      Cu317 1.951       .   S
O302       C305 1.250       .   A
O302      Cu304 1.951       .   S
O300       C307 1.251       .   A
O300      Cu304 1.951       .   S
O301       C306 1.250       .   A
O301      Cu304 1.951       .   S
C620       H625 1.140       .   S
C512       H516 1.140       .   S
C509       H514 1.140       .   S
C510       H515 1.140       .   S
C507       H513 1.140       .   S
O48         C55 1.251       .   A
O48        Cu52 1.951       .   S
O29         C39 1.250       .   A
O29        Cu37 1.951       .   S
C690       H695 1.140       .   S
C689       H694 1.140       .   S
C692       H696 1.140       .   S
O22        Cu24 1.951       .   S
O22         C25 1.250       .   A
O20        Cu24 1.951       .   S
O20         C27 1.251       .   A
O21        Cu24 1.951       .   S
O21         C26 1.250       .   A
C557       C562 1.540       .   A
C562       H566 1.140       .   S
C561       C562 1.540       .   A
O246       C249 1.250       .   A
C249       C748 1.542       .   S
O239       C249 1.250       .   A
C560       C561 1.540       .   A
C561       C182 1.543   1_544   S
O49        Cu52 1.951       .   S
O50        Cu52 1.951       .   S
Cu51       Cu52 2.630       .   S
O47        Cu52 1.951       .   S
O43        Cu51 1.951       .   S
O44        Cu51 1.951       .   S
O45        Cu51 1.951       .   S
O46        Cu51 1.951       .   S
O239      Cu247 1.951       .   S
C568       C137 1.543       .   S
C568       C569 1.540       .   A
C567       C568 1.540       .   A
C569       H574 1.140       .   S
C569       C570 1.540       .   A
O232      Cu234 1.951       .   S
O232       C235 1.250       .   A
O230      Cu234 1.951       .   S
O230       C237 1.251       .   A
O231      Cu234 1.951       .   S
O231       C236 1.250       .   A
C447       C448 1.540       .   A
C448       C449 1.540       .   A
C55        C448 1.543       .   S
O144      Cu149 1.951       .   S
Cu149     Cu150 2.630       .   S
O141      Cu149 1.951       .   S
O142      Cu149 1.951       .   S
O143      Cu149 1.951       .   S
C809       C810 1.540       .   A
C809       H814 1.140       .   S
C808       C809 1.540       .   A
C306       C808 1.542       .   S
C807       C808 1.540       .   A
C807       C812 1.540       .   A
C807       H813 1.140       .   S
C305       C801 1.542       .   S
C800       C801 1.540       .   A
C801       C802 1.540       .   A
C799       C800 1.540       .   A
C800       H805 1.140       .   S
C797       C802 1.540       .   A
C802       H806 1.140       .   S
C759       C760 1.540       .   A
C760       C761 1.540       .   A
C760       H765 1.140       .   S
C462       H466 1.140       .   S
C459       H464 1.140       .   S
C761       C762 1.540       .   A
C322       C761 1.542   1_545   S
C337       H343 1.140       .   S
C762       H766 1.140       .   S
C757       C762 1.540       .   A
C340       H345 1.140       .   S
C339       H344 1.140       .   S
O59         C69 1.250       .   A
O59        Cu65 1.951       .   S
O58         C68 1.250       .   A
O58        Cu65 1.951       .   S
O50         C53 1.250       .   A
O57         C67 1.250       .   A
O57        Cu65 1.951       .   S
C479       H484 1.140       .   S
C479       C480 1.540       .   A
C478       C479 1.540       .   A
O283      Cu289 1.951       .   S
O282      Cu289 1.951       .   S
O281      Cu289 1.951       .   S
Cu289     Cu290 2.630       .   S
O284      Cu289 1.951       .   S
C767       C768 1.540       .   A
C767       C772 1.540       .   A
C767       H773 1.140       .   S
O162      Cu164 1.951       .   S
O162       C165 1.250       .   A
C480       C481 1.540       .   A
C481       C482 1.540       .   A
C481        C96 1.542   1_455   S
O160       C167 1.251       .   A
O160      Cu164 1.951       .   S
O161       C166 1.250       .   A
O161      Cu164 1.951       .   S
C661       C207 1.542   1_565   S
C660       C661 1.540       .   A
C661       C662 1.540       .   A
C659       C660 1.540       .   A
C660       H665 1.140       .   S
C747       C748 1.540       .   A
C748       C749 1.540       .   A
C768       C769 1.540       .   A
C769       C770 1.540       .   A
C769       H774 1.140       .   S
C747       C752 1.540       .   A
C747       H753 1.140       .   S
O169       C179 1.250       .   A
O169      Cu177 1.951       .   S
C737       C742 1.540       .   A
C742       H746 1.140       .   S
C741       C742 1.540       .   A
C667       C668 1.540       .   A
C668       C669 1.540       .   A
C668       C208 1.542   1_455   S
C740       H745 1.140       .   S
C739       C740 1.540       .   A
C740       C741 1.540       .   A
C741       C278 1.542   1_455   S
C482       H486 1.140       .   S
C487       H493 1.140       .   S
C487       C488 1.540       .   A
C487       C492 1.540       .   A
O260       C263 1.250       .   A
O260      Cu262 1.951       .   S
C759       H764 1.140       .   S
O30         C40 1.250       .   A
C40        C428 1.542       .   S
O35         C40 1.250       .   A
O31         C41 1.250       .   A
C41        C421 1.542       .   S
O34         C41 1.251       .   A
C42        C408 1.542       .   S
O33         C42 1.250       .   A
O32         C42 1.250       .   A
C359       C360 1.540       .   A
C358       C359 1.540       .   A
C359       H364 1.140       .   S
C642       H646 1.140       .   S
C639       H644 1.140       .   S
C640       H645 1.140       .   S
C637       H643 1.140       .   S
O75        Cu80 1.951       .   S
O77        Cu80 1.951       .   S
O76        Cu80 1.951       .   S
Cu79       Cu80 2.630       .   S
O78        Cu80 1.951       .   S
C592       H596 1.140       .   S
C591       C592 1.540       .   A
C587       C592 1.540       .   A
C166       C591 1.542       .   S
C590       C591 1.540       .   A
C589       C590 1.540       .   A
C590       H595 1.140       .   S
C597       C602 1.540       .   A
C597       C598 1.540       .   A
C597       H603 1.140       .   S
O211      Cu219 1.951       .   S
O212      Cu219 1.951       .   S
O213      Cu219 1.951       .   S
O214      Cu219 1.951       .   S
Cu219     Cu220 2.630       .   S
C599       C600 1.540       .   A
C598       C599 1.540       .   A
C599       H604 1.140       .   S
C152       C598 1.543       .   S
C610       H615 1.140       .   S
C610       C611 1.540       .   A
C609       C610 1.540       .   A
C357       C358 1.540       .   A
C28        C358 1.542   1_655   S
C224       C611 1.542   1_556   S
C611       C612 1.540       .   A
C698       C699 1.540       .   A
C237       C698 1.543       .   S
C697       C698 1.540       .   A
C699       C700 1.540       .   A
C699       H704 1.140       .   S
C348        C12 1.542       .   S
C348       C349 1.540       .   A
C347       C348 1.540       .   A
C349       H354 1.140       .   S
C349       C350 1.540       .   A
C690       C691 1.540       .   A
C689       C690 1.540       .   A
C691       C692 1.540       .   A
C691       C336 1.542       .   S
C687       C692 1.540       .   A
C341       C342 1.540       .   A
C340       C341 1.540       .   A
C341       C125 1.543       .   S
C657       C662 1.540       .   A
C662       H666 1.140       .   S
C697       C702 1.540       .   A
C697       H703 1.140       .   S
C492       H496 1.140       .   S
C490       H495 1.140       .   S
C750       C751 1.540       .   A
C751       C752 1.540       .   A
C751       C277 1.542       .   S
C687       H693 1.140       .   S
C750       H755 1.140       .   S
C749       C750 1.540       .   A
C527       C532 1.540       .   A
C527       H533 1.140       .   S
C527       C528 1.540       .   A
C752       H756 1.140       .   S
C517       C522 1.540       .   A
C522       H526 1.140       .   S
C521       C522 1.540       .   A
C519       C520 1.540       .   A
C520       H525 1.140       .   S
C520       C521 1.540       .   A
C266       C521 1.543       .   S
C787       H793 1.140       .   S
C789       H794 1.140       .   S
C790       H795 1.140       .   S
C792       H796 1.140       .   S
C768       C280 1.543       .   S
O270       C280 1.250       .   A
O271       C280 1.250       .   A
C449       C450 1.540       .   A
C449       H454 1.140       .   S
C757       C758 1.540       .   A
C757       H763 1.140       .   S
C447       C452 1.540       .   A
C447       H453 1.140       .   S
O7         Cu10 1.951       .   S
O6         Cu10 1.951       .   S
O5         Cu10 1.951       .   S
Cu9        Cu10 2.630       .   S
O8         Cu10 1.951       .   S
C441       C112 1.543       .   S
C440       C441 1.540       .   A
C441       C442 1.540       .   A
O102       C112 1.250       .   A
O103       C112 1.250       .   A
O101       C111 1.250       .   A
O104       C111 1.251       .   A
C528       C111 1.543       .   S
O100       C110 1.250       .   A
C110       C501 1.542       .   S
O105       C110 1.250       .   A
O103      Cu108 1.951       .   S
O104      Cu108 1.951       .   S
O105      Cu108 1.951       .   S
O106      Cu108 1.951       .   S
Cu107     Cu108 2.630       .   S
O88        Cu93 1.951       .   S
O88         C98 1.250       .   A
O89         C98 1.250       .   A
O89        Cu94 1.951       .   S
O85        Cu93 1.951       .   S
O85         C95 1.250       .   A
O86        Cu93 1.951       .   S
O86         C96 1.250       .   A
O87        Cu93 1.951       .   S
O87         C97 1.250       .   A
O100      Cu107 1.951       .   S
O101      Cu107 1.951       .   S
O102      Cu107 1.951       .   S
O99       Cu107 1.951       .   S
O298      Cu303 1.951       .   S
O298       C308 1.250       .   A
O299       C308 1.250       .   A
O299      Cu304 1.951       .   S
C419       H424 1.140       .   S
C420       H425 1.140       .   S
C417       H423 1.140       .   S
C477       H483 1.140       .   S
C382       H386 1.140       .   S
C380       H385 1.140       .   S
C379       H384 1.140       .   S
C377       H383 1.140       .   S
O295      Cu303 1.951       .   S
O295       C305 1.250       .   A
O296       C306 1.250       .   A
O296      Cu303 1.951       .   S
O297      Cu303 1.951       .   S
O297       C307 1.250       .   A
O17        Cu23 1.951       .   S
O17         C27 1.250       .   A
O16         C26 1.250       .   A
O16        Cu23 1.951       .   S
O15        Cu23 1.951       .   S
O15         C25 1.250       .   A
C540       H545 1.140       .   S
C539       H544 1.140       .   S
C542       H546 1.140       .   S
C618       C619 1.540       .   A
C618       C181 1.542       .   S
C617       C618 1.540       .   A
O19        Cu24 1.951       .   S
O19         C28 1.250       .   A
O18         C28 1.250       .   A
O18        Cu23 1.951       .   S
C422       H426 1.140       .   S
O267       C277 1.250       .   A
O267      Cu275 1.951       .   S
C236       C718 1.542       .   S
O226       C236 1.250       .   A
O227       C237 1.250       .   A
C235       C708 1.542       .   S
O225       C235 1.250       .   A
O229       C238 1.250       .   A
O228       C238 1.250       .   A
C238       C461 1.543       .   S
O269       C279 1.250       .   A
O269      Cu275 1.951       .   S
O268       C278 1.250       .   A
O268      Cu275 1.951       .   S
C799       H804 1.140       .   S
O127       C137 1.250       .   A
O127      Cu135 1.951       .   S
O120      Cu122 1.951       .   S
O120       C123 1.250       .   A
C797       H803 1.140       .   S
C619       C620 1.540       .   A
C619       H624 1.140       .   S
O128      Cu135 1.951       .   S
O128       C138 1.250       .   A
O129       C139 1.250       .   A
O129      Cu135 1.951       .   S
C628       C629 1.540       .   A
C629       H634 1.140       .   S
C629       C630 1.540       .   A
C180       C628 1.542       .   S
C627       C628 1.540       .   A
O175      Cu178 1.951       .   S
O174      Cu178 1.951       .   S
Cu177     Cu178 2.630       .   S
O176      Cu178 1.951       .   S
O173      Cu178 1.951       .   S
C632       H636 1.140       .   S
C620       C621 1.540       .   A
C621       C622 1.540       .   A
C621       C293 1.542       .   S
C659       H664 1.140       .   S
O171      Cu177 1.951       .   S
O170      Cu177 1.951       .   S
O172      Cu177 1.951       .   S
C622       H626 1.140       .   S
C617       C622 1.540       .   A
C630       H635 1.140       .   S
C627       H633 1.140       .   S
C627       C632 1.540       .   A
C450       H455 1.140       .   S
C450       C451 1.540       .   A
O190       C193 1.250       .   A
O190      Cu192 1.951       .   S
O197       C207 1.250       .   A
O197      Cu205 1.951       .   S
O199       C209 1.250       .   A
O199      Cu205 1.951       .   S
O198      Cu205 1.951       .   S
O198       C208 1.250       .   A
C577       H583 1.140       .   S
C457       H463 1.140       .   S
C457       C458 1.540       .   A
C457       C462 1.540       .   A
C717       H723 1.140       .   S
C720       H725 1.140       .   S
C719       H724 1.140       .   S
C722       H726 1.140       .   S
O315      Cu318 1.951       .   S
O314      Cu318 1.951       .   S
O316      Cu318 1.951       .   S
Cu317     Cu318 2.630       .   S
O313      Cu318 1.951       .   S
C717       C718 1.540       .   A
C717       C722 1.540       .   A
C264       C711 1.542       .   S
C710       C711 1.540       .   A
C711       C712 1.540       .   A
C709       C710 1.540       .   A
C710       H715 1.140       .   S
C497       C498 1.540       .   A
C82        C498 1.542       .   S
C498       C499 1.540       .   A
C707       C712 1.540       .   A
C712       H716 1.140       .   S
C497       C502 1.540       .   A
C497       H503 1.140       .   S
C719       C720 1.540       .   A
C718       C719 1.540       .   A
O311      Cu317 1.951       .   S
O310      Cu317 1.951       .   S
O312      Cu317 1.951       .   S
C491       C492 1.540       .   A
C491       C109 1.542   1_455   S
C490       C491 1.540       .   A
C509       C510 1.540       .   A
C510       C511 1.540       .   A
C658       C195 1.542       .   S
C657       C658 1.540       .   A
C658       C659 1.540       .   A
C308       C651 1.542       .   S
C307       C731 1.542       .   S
C650       H655 1.140       .   S
C650       C651 1.540       .   A
C649       C650 1.540       .   A
C651       C652 1.540       .   A
C647       C652 1.540       .   A
C652       H656 1.140       .   S
C347       H353 1.140       .   S
C347       C352 1.540       .   A
C609       H614 1.140       .   S
C612       H616 1.140       .   S
C607       H613 1.140       .   S
C589       H594 1.140       .   S
C587       H593 1.140       .   S
C39        C398 1.542       .   S
O36         C39 1.250       .   A
O218      Cu220 1.951       .   S
O215      Cu220 1.951       .   S
O216      Cu220 1.951       .   S
O217      Cu220 1.951       .   S
C749       H754 1.140       .   S
O146       C153 1.251       .   A
C153       C578 1.542       .   S
O143       C153 1.250       .   A
O147       C152 1.250       .   A
O142       C152 1.250       .   A
C151       C401 1.542       .   S
O148       C151 1.250       .   A
O141       C151 1.250       .   A
C401       C402 1.540       .   A
C402       H406 1.140       .   S
C397       C402 1.540       .   A
C407       H413 1.140       .   S
C407       C408 1.540       .   A
C407       C412 1.540       .   A
O144       C154 1.250       .   A
O145       C154 1.250       .   A
C154       C588 1.542       .   S
C408       C409 1.540       .   A
C409       C410 1.540       .   A
C409       H414 1.140       .   S
C429       C430 1.540       .   A
C428       C429 1.540       .   A
C429       H434 1.140       .   S
C390       C391 1.540       .   A
C391       C392 1.540       .   A
C83        C391 1.542   1_455   S
C390       H395 1.140       .   S
C389       C390 1.540       .   A
C427       C428 1.540       .   A
C397       C398 1.540       .   A
C397       H403 1.140       .   S
C398       C399 1.540       .   A
C399       H404 1.140       .   S
C399       C400 1.540       .   A
O258      Cu262 1.951       .   S
O258       C265 1.251       .   A
O259      Cu262 1.951       .   S
O259       C264 1.250       .   A
O254      Cu261 1.951       .   S
O254       C264 1.250       .   A
O255      Cu261 1.951       .   S
O255       C265 1.250       .   A
O256      Cu261 1.951       .   S
O256       C266 1.250       .   A
O257      Cu262 1.951       .   S
O257       C266 1.250       .   A
O253      Cu261 1.951       .   S
O253       C263 1.250       .   A
C500       H505 1.140       .   S
C499       H504 1.140       .   S
C502       H506 1.140       .   S
C421       C422 1.540       .   A
C420       C421 1.540       .   A
O274       C277 1.250       .   A
C419       C420 1.540       .   A
C460       H465 1.140       .   S
O273       C278 1.250       .   A
O272       C279 1.251       .   A
C531       C279 1.543       .   S
O229      Cu234 1.951       .   S
O228      Cu233 1.951       .   S
C477       C482 1.540       .   A
C477       C478 1.540       .   A
O62        Cu66 1.951       .   S
O63        Cu66 1.951       .   S
O61        Cu66 1.951       .   S
O64        Cu66 1.951       .   S
Cu65       Cu66 2.630       .   S
C577       C578 1.540       .   A
C578       C579 1.540       .   A
C467       C472 1.540       .   A
C472       H476 1.140       .   S
C471       C472 1.540       .   A
O60        Cu65 1.951       .   S
C577       C582 1.540       .   A
O225      Cu233 1.951       .   S
C570       H575 1.140       .   S
C570       C571 1.540       .   A
O227      Cu233 1.951       .   S
O226      Cu233 1.951       .   S
O130      Cu135 1.951       .   S
Cu135     Cu136 2.630       .   S
O131      Cu136 1.951       .   S
O133      Cu136 1.951       .   S
O132      Cu136 1.951       .   S
O134      Cu136 1.951       .   S
C342       H346 1.140       .   S
C372       H376 1.140       .   S
C369       H374 1.140       .   S
C370       H375 1.140       .   S
C367       H373 1.140       .   S
C572       H576 1.140       .   S
C567       H573 1.140       .   S
C470       H475 1.140       .   S
C469       H474 1.140       .   S
C467       H473 1.140       .   S
O315       C320 1.250       .   A
O49         C54 1.250       .   A
O316       C319 1.250       .   A
O311       C321 1.250       .   A
O310       C320 1.250       .   A
O313       C322 1.250       .   A
O312       C322 1.250       .   A
O43         C53 1.250       .   A
O44         C54 1.250       .   A
O45         C55 1.250       .   A
O46         C56 1.250       .   A
O47         C56 1.250       .   A
C547       H553 1.140       .   S
C758       C759 1.540       .   A
C758       C265 1.542       .   S
C607       C612 1.540       .   A
C617       H623 1.140       .   S
O175       C180 1.250       .   A
O174       C181 1.251       .   A
O176       C179 1.250       .   A
O171       C181 1.250       .   A
O170       C180 1.250       .   A
O173       C182 1.250       .   A
O172       C182 1.250       .   A
C367       C368 1.540       .   A
C367       C372 1.540       .   A
C700       H705 1.140       .   S
C549       H554 1.140       .   S
C707       H713 1.140       .   S
C709       H714 1.140       .   S
O60         C70 1.250       .   A
O61         C70 1.250       .   A
C458        C70 1.543       .   S
C647       H653 1.140       .   S
C499       C500 1.540       .   A
C649       H654 1.140       .   S
Cu93       Cu94 2.630       .   S
O92        Cu94 1.951       .   S
O91        Cu94 1.951       .   S
O90        Cu94 1.951       .   S
Cu261     Cu262 2.630       .   S
C357       H363 1.140       .   S
C357       C362 1.540       .   A
C251       C728 1.542       .   S
C727       C728 1.540       .   A
C728       C729 1.540       .   A
C729       H734 1.140       .   S
C729       C730 1.540       .   A
C667       C672 1.540       .   A
C667       H673 1.140       .   S
C351       C352 1.540       .   A
C352       H356 1.140       .   S
C727       C732 1.540       .   A
C727       H733 1.140       .   S
C720       C721 1.540       .   A
C263       C721 1.542   1_655   S
C721       C722 1.540       .   A
C688       C689 1.540       .   A
C687       C688 1.540       .   A
C688       C223 1.542       .   S
O288      Cu290 1.951       .   S
O287      Cu290 1.951       .   S
O286      Cu290 1.951       .   S
O285      Cu290 1.951       .   S
C489       C490 1.540       .   A
C681       C682 1.540       .   A
C682       H686 1.140       .   S
C677       C682 1.540       .   A
C680       C681 1.540       .   A
C321       C681 1.542       .   S
C679       C680 1.540       .   A
C680       H685 1.140       .   S
C677       H683 1.140       .   S
C458       C459 1.540       .   A
C530       C531 1.540       .   A
C531       C532 1.540       .   A
C530       H535 1.140       .   S
C529       C530 1.540       .   A
Cu23       Cu24 2.630       .   S
C532       H536 1.140       .   S
C537       C538 1.540       .   A
C537       H543 1.140       .   S
C537       C542 1.540       .   A
C459       C460 1.540       .   A
C777       H783 1.140       .   S
C782       H786 1.140       .   S
C780       H785 1.140       .   S
C779       H784 1.140       .   S
C56        C438 1.543       .   S
C438       C439 1.540       .   A
C437       C438 1.540       .   A
C517       H523 1.140       .   S
C430       C431 1.540       .   A
C430       H435 1.140       .   S
O113       C123 1.250       .   A
C541       C123 1.542       .   S
C431       C432 1.540       .   A
C427       C432 1.540       .   A
C432       H436 1.140       .   S
O117       C126 1.250       .   A
O116       C126 1.250       .   A
C558       C126 1.543       .   S
O119       C124 1.250       .   A
C124       C551 1.542       .   S
O114       C124 1.250       .   A
O118       C125 1.251       .   A
O115       C125 1.250       .   A
C657       H663 1.140       .   S
O328      Cu332 1.951       .   S
O328       C335 1.251       .   A
O329      Cu332 1.951       .   S
O329       C334 1.250       .   A
O324      Cu331 1.951       .   S
O324       C334 1.250       .   A
O325       C335 1.250       .   A
O325      Cu331 1.951       .   S
O326       C336 1.250       .   A
O326      Cu331 1.951       .   S
O327      Cu332 1.951       .   S
O327       C336 1.250       .   A
O323       C333 1.250       .   A
O323      Cu331 1.951       .   S
C427       H433 1.140       .   S
O288       C291 1.250       .   A
C350       C351 1.540       .   A
C350       H355 1.140       .   S
O283       C293 1.250       .   A
O282       C292 1.250       .   A
O281       C291 1.250       .   A
C519       H524 1.140       .   S
O287       C292 1.250       .   A
O286       C293 1.251       .   A
O285       C294 1.250       .   A
O284       C294 1.250       .   A
C557       H563 1.140       .   S
C557       C558 1.540       .   A
C97        C431 1.542   1_565   S
O90         C97 1.251       .   A
O91         C96 1.250       .   A
O92         C95 1.250       .   A
C95        C471 1.542       .   S
C669       C670 1.540       .   A
C669       H674 1.140       .   S
C518        C98 1.543       .   S
C529       H534 1.140       .   S
O211       C221 1.250       .   A
O212       C222 1.250       .   A
O213       C223 1.250       .   A
O214       C224 1.250       .   A
O215       C224 1.250       .   A
O216       C223 1.251       .   A
O217       C222 1.250       .   A
O218       C221 1.250       .   A
C221       C631 1.542   1_545   S
C548       C549 1.540       .   A
C549       C550 1.540       .   A
C641       C222 1.542   1_455   S
O131       C140 1.250       .   A
O130       C140 1.250       .   A
O133       C138 1.250       .   A
O132       C139 1.251       .   A
O134       C137 1.250       .   A
C550       C551 1.540       .   A
C550       H555 1.140       .   S
C338        C13 1.543       .   S
C338       C339 1.540       .   A
C337       C338 1.540       .   A
Cu163     Cu164 2.630       .   S
O159      Cu164 1.951       .   S
O157      Cu163 1.951       .   S
O156      Cu163 1.951       .   S
O155      Cu163 1.951       .   S
O158      Cu163 1.951       .   S
C439       H444 1.140       .   S
C440       H445 1.140       .   S
C442       H446 1.140       .   S
C437       H443 1.140       .   S
O145      Cu150 1.951       .   S
O146      Cu150 1.951       .   S
O147      Cu150 1.951       .   S
Cu303     Cu304 2.630       .   S
O148      Cu150 1.951       .   S
C319       C798 1.542   1_655   S
C467       C468 1.540       .   A
C648       C649 1.540       .   A
C647       C648 1.540       .   A
C193       C648 1.542       .   S
C631       C632 1.540       .   A
C637       C642 1.540       .   A
C641       C642 1.540       .   A
C640       C641 1.540       .   A
C639       C640 1.540       .   A
C630       C631 1.540       .   A
C26        C388 1.542       .   S
C27        C351 1.542   1_665   S
C25        C378 1.542       .   S
C580       H585 1.140       .   S
C579       H584 1.140       .   S
C582       H586 1.140       .   S
Cu233     Cu234 2.630       .   S
C739       H744 1.140       .   S
C737       H743 1.140       .   S
C168       C608 1.542       .   S
O159       C168 1.250       .   A
O158       C168 1.250       .   A
O156       C166 1.250       .   A
O157       C167 1.250       .   A
C451       C167 1.543       .   S
C165       C581 1.542   1_565   S
O155       C165 1.250       .   A
C538       C539 1.540       .   A
C539       C540 1.540       .   A
C368       C369 1.540       .   A
C14        C368 1.543       .   S
C369       C370 1.540       .   A
C538       C140 1.542       .   S
C68        C468 1.542       .   S
C468       C469 1.540       .   A
C360       H365 1.140       .   S
C360       C361 1.540       .   A
C361        C11 1.542       .   S
C361       C362 1.540       .   A
C362       H366 1.140       .   S
O246      Cu248 1.951       .   S
O245       C250 1.250       .   A
O245      Cu248 1.951       .   S
O244       C251 1.251       .   A
O244      Cu248 1.951       .   S
O243       C252 1.250       .   A
O243      Cu248 1.951       .   S
O242      Cu247 1.951       .   S
O242       C252 1.250       .   A
O241      Cu247 1.951       .   S
O241       C251 1.250       .   A
O240      Cu247 1.951       .   S
O240       C250 1.250       .   A
C508       C509 1.540       .   A
C508        C84 1.543       .   S
C507       C508 1.540       .   A
O74        Cu79 1.951       .   S
O71        Cu79 1.951       .   S
O73        Cu79 1.951       .   S
O72        Cu79 1.951       .   S
C461       C462 1.540       .   A
C460       C461 1.540       .   A
C500       C501 1.540       .   A
C501       C502 1.540       .   A
C469       C470 1.540       .   A
C507       C512 1.540       .   A
O119      Cu122 1.951       .   S
O118      Cu122 1.951       .   S
O117      Cu122 1.951       .   S
Cu121     Cu122 2.630       .   S
C400       C401 1.540       .   A
O113      Cu121 1.951       .   S
O116      Cu121 1.951       .   S
O115      Cu121 1.951       .   S
O114      Cu121 1.951       .   S
C400       H405 1.140       .   S
C67        C478 1.542       .   S
C560       H565 1.140       .   S
C559       H564 1.140       .   S
O201       C210 1.250       .   A
O200       C210 1.250       .   A
C601       C210 1.543   1_554   S
O78         C81 1.250       .   A
O75         C84 1.250       .   A
O74         C84 1.250       .   A
O77         C82 1.250       .   A
O76         C83 1.251       .   A
O71         C81 1.250       .   A
O73         C83 1.250       .   A
O72         C82 1.250       .   A
C439       C440 1.540       .   A
C602       H606 1.140       .   S
C601       C602 1.540       .   A
C600       C601 1.540       .   A
C600       H605 1.140       .   S
C771       C772 1.540       .   A
C770       C771 1.540       .   A
C771       C335 1.543       .   S
O188      Cu192 1.951       .   S
O189      Cu192 1.951       .   S
Cu191     Cu192 2.630       .   S
O187      Cu192 1.951       .   S
O183      Cu191 1.951       .   S
O184      Cu191 1.951       .   S
O185      Cu191 1.951       .   S
O186      Cu191 1.951       .   S
O106       C109 1.250       .   A
C387       C392 1.540       .   A
C392       H396 1.140       .   S
C702       H706 1.140       .   S
O63         C68 1.250       .   A
O62         C69 1.251       .   A
C69        C371 1.543   1_565   S
O64         C67 1.250       .   A
C567       C572 1.540       .   A
O272      Cu276 1.951       .   S
O273      Cu276 1.951       .   S
O271      Cu276 1.951       .   S
O274      Cu276 1.951       .   S
Cu275     Cu276 2.630       .   S
O270      Cu275 1.951       .   S
C320       C811 1.542   1_545   S
O314       C321 1.251       .   A
C738       C739 1.540       .   A
C737       C738 1.540       .   A
C250       C738 1.542       .   S
C732       H736 1.140       .   S
C731       C732 1.540       .   A
C730       C731 1.540       .   A
C730       H735 1.140       .   S
O6          C13 1.251       .   A
O3          C13 1.250       .   A
O7          C12 1.250       .   A
O2          C12 1.250       .   A
O1          C11 1.250       .   A
O8          C11 1.250       .   A
O5          C14 1.250       .   A
O4          C14 1.250       .   A
O31        Cu37 1.951       .   S
O30        Cu37 1.951       .   S
O32        Cu37 1.951       .   S
Cu37       Cu38 2.630       .   S
O33        Cu38 1.951       .   S
O35        Cu38 1.951       .   S
O34        Cu38 1.951       .   S
O36        Cu38 1.951       .   S
C559       C560 1.540       .   A
C139       C548 1.542   1_565   S
C381       C138 1.542   1_655   S
C781       C782 1.540       .   A
C777       C782 1.540       .   A
C779       C780 1.540       .   A
C780       C781 1.540       .   A
C781       C333 1.542   1_565   S
C787       C788 1.540       .   A
C787       C792 1.540       .   A
C417       C422 1.540       .   A
C788       C789 1.540       .   A
C292       C788 1.542       .   S
C789       C790 1.540       .   A
O330       C333 1.250       .   A
O330      Cu332 1.951       .   S
C337       C342 1.540       .   A
C339       C340 1.540       .   A
C488        C81 1.542       .   S
C679       H684 1.140       .   S
C772       H776 1.140       .   S
O203      Cu206 1.951       .   S
O203       C208 1.250       .   A
O202      Cu206 1.951       .   S
O202       C209 1.251       .   A
O201      Cu206 1.951       .   S
O200      Cu205 1.951       .   S
C547       C552 1.540       .   A
C552       H556 1.140       .   S
C551       C552 1.540       .   A
O204       C207 1.250       .   A
O204      Cu206 1.951       .   S
C511       C252 1.543       .   S
C558       C559 1.540       .   A
C812       H816 1.140       .   S
C811       C812 1.540       .   A
C810       H815 1.140       .   S
C810       C811 1.540       .   A
O4          Cu9 1.951       .   S
O3          Cu9 1.951       .   S
O2          Cu9 1.951       .   S
O1          Cu9 1.951       .   S
C452       H456 1.140       .   S
C489       H494 1.140       .   S
C547       C548 1.540       .   A
C540       C541 1.540       .   A
C541       C542 1.540       .   A
Cu331     Cu332 2.630       .   S
C770       H775 1.140       .   S
C777       C778 1.540       .   A
C778       C779 1.540       .   A
C291       C778 1.542       .   S
C678       C679 1.540       .   A
C677       C678 1.540       .   A
C209       C678 1.542       .   S
C671       C672 1.540       .   A
C672       H676 1.140       .   S
C670       C671 1.540       .   A
C670       H675 1.140       .   S
C671       C196 1.542       .   S
C607       C608 1.540       .   A
C54        C418 1.542       .   S
C53        C411 1.542   1_565   S
C580       C581 1.540       .   A
C579       C580 1.540       .   A
C581       C582 1.540       .   A
Cu205     Cu206 2.630       .   S
C587       C588 1.540       .   A
C588       C589 1.540       .   A
C608       C609 1.540       .   A
C179       C638 1.542       .   S
C379       C380 1.540       .   A
C378       C379 1.540       .   A
C377       C378 1.540       .   A
C377       C382 1.540       .   A
C371       C372 1.540       .   A
C370       C371 1.540       .   A
C470       C471 1.540       .   A
O186       C196 1.250       .   A
O187       C196 1.250       .   A
O188       C195 1.251       .   A
O185       C195 1.250       .   A
C571       C194 1.543   1_554   S
O189       C194 1.250       .   A
O184       C194 1.250       .   A
O183       C193 1.250       .   A
C480       H485 1.140       .   S
C488       C489 1.540       .   A
C451       C452 1.540       .   A
C294       C701 1.543       .   S
C571       C572 1.540       .   A
C518       C519 1.540       .   A
C517       C518 1.540       .   A
O99        C109 1.250       .   A
C511       C512 1.540       .   A
C437       C442 1.540       .   A
C528       C529 1.540       .   A
C389       H394 1.140       .   S
C387       H393 1.140       .   S
C412       H416 1.140       .   S
C410       H415 1.140       .   S
C637       C638 1.540       .   A
C638       C639 1.540       .   A
Cu247     Cu248 2.630       .   S
C708       C709 1.540       .   A
C707       C708 1.540       .   A
C791       C334 1.542   1_455   S
C701       C702 1.540       .   A
C700       C701 1.540       .   A
C381       C382 1.540       .   A
C417       C418 1.540       .   A
C411       C412 1.540       .   A
C410       C411 1.540       .   A
C418       C419 1.540       .   A
C387       C388 1.540       .   A
C798       C799 1.540       .   A
C797       C798 1.540       .   A
C380       C381 1.540       .   A
C388       C389 1.540       .   A
C790       C791 1.540       .   A
C791       C792 1.540       .   A
