data_qzd_v1-4c_Cu_1_Ch_1B_4H_Ch
_audit_creation_date              2020-02-03
_audit_creation_method            'tobacco_3.0'
_symmetry_space_group_name_H-M    'P1'
_symmetry_Int_Tables_number       1
_symmetry_cell_setting            triclinic
loop_
_symmetry_equiv_pos_as_xyz
  x,y,z
_cell_length_a                    22.372055879693413
_cell_length_b                    22.37205557042842
_cell_length_c                    33.558084791578324
_cell_angle_alpha                 90.00000000729071
_cell_angle_beta                  89.99999999999942
_cell_angle_gamma                 120.00000110562951
loop_
_atom_site_label
_atom_site_type_symbol
_atom_site_fract_x
_atom_site_fract_y
_atom_site_fract_z
O1         O   -0.0580306219   -0.1154200501    0.3333001358
O2         O    0.1154193174    0.0580322254    0.3333009996
O3         O    0.0286997861   -0.0286848389    0.3911188228
O4         O    0.0286952384   -0.0286966689    0.2754780996
O5         O   -0.0286934571    0.0286911559    0.2754769641
O6         O   -0.0286951342    0.0286965732    0.3911134728
O7         O    0.0580306219    0.1154200501    0.3332998642
O8         O   -0.1154193174   -0.0580322254    0.3332990004
Cu9       Cu    0.0339361327   -0.0339261686    0.3333011783
Cu10      Cu   -0.0339361327    0.0339261686    0.3332988217
C11        C   -0.1123003940   -0.1123003940    0.3333001578
C12        C    0.1123003940    0.1123003940    0.3332998422
C13        C   -0.0000002757   -0.0000002059    0.4081643174
C14        C    0.0000002757    0.0000002059    0.2584356826
O15        O   -0.0580304752    0.3845798475    0.3333025079
O16        O    0.1154194642    0.5580321231    0.3333033743
O17        O    0.0286999433    0.4713150446    0.3911211962
O18        O    0.0286953748    0.4713032429    0.2754804729
O19        O   -0.0286933206    0.5286910676    0.2754793537
O20        O   -0.0286949771    0.5286964567    0.3911158624
O21        O    0.0580307687    0.6154199478    0.3333022550
O22        O   -0.1154191706    0.4419676722    0.3333013887
Cu23      Cu    0.0339362795    0.4660737290    0.3333035502
Cu24      Cu   -0.0339359859    0.5339260663    0.3333012128
C25        C   -0.1123002472    0.3876995037    0.3333025377
C26        C    0.1123005408    0.6123002916    0.3333022253
C27        C   -0.0000001155    0.4999996735    0.4081666989
C28        C    0.0000004091    0.5000001218    0.2584380641
O29        O    0.5286950989    0.9713053002    0.3911200247
O30        O    0.5286952064    0.9713077668    0.2754859591
O31        O    0.6154207493    1.0580357112    0.3332981518
O32        O    0.4419632424    0.8845710301    0.3333036167
O33        O    0.3845733343    0.9419576421    0.3333039156
O34        O    0.5580246131    1.1154159075    0.3333026632
O35        O    0.4713052983    1.0286943788    0.2754862580
O36        O    0.4713051907    1.0286919122    0.3911203236
Cu37      Cu    0.5339330841    0.9660704237    0.3332998149
Cu38      Cu    0.4660673130    1.0339292554    0.3333064678
C39        C    0.5000004483    1.0000000744    0.4081700667
C40        C    0.4999999489    0.9999996046    0.2584362160
C41        C    0.6122966806    1.1122963215    0.3333032982
C42        C    0.3877037166    0.8877033575    0.3333029845
O43        O    0.4419695119    0.3845799060    0.3333020233
O44        O    0.6154194513    0.5580321816    0.3333028856
O45        O    0.5286999538    0.4713150855    0.3911207095
O46        O    0.5286953384    0.4713033190    0.2754799863
O47        O    0.4713066429    0.5286911437    0.2754788942
O48        O    0.4713050335    0.5286964976    0.3911154029
O49        O    0.5580307558    0.6154200063    0.3333017935
O50        O    0.3845808164    0.4419677307    0.3333009312
Cu51      Cu    0.5339362666    0.4660737875    0.3333030611
Cu52      Cu    0.4660640011    0.5339261248    0.3333007558
C53        C    0.3876997399    0.3876995622    0.3333020671
C54        C    0.6123005278    0.6123003501    0.3333017497
C55        C    0.4999999020    0.4999997093    0.4081662258
C56        C    0.5000003658    0.5000002031    0.2584375910
O57        O   -0.0286945185    0.9426104588    1.0577829894
O58        O   -0.0286920796    0.9426128259    0.9421489239
O59        O    0.0580358766    0.9426152234    0.9999611059
O60        O   -0.1154288005    0.9426080491    0.9999665921
O61        O   -0.0580421875    1.0573845720    0.9999668936
O62        O    0.1154160738    1.0573915586    0.9999656200
O63        O    0.0286945333    1.0573893488    0.9421492254
O64        O    0.0286920944    1.0573869816    1.0577832910
Cu65      Cu   -0.0339294090    0.9321376008    0.9999627794
Cu66      Cu    0.0339294238    1.0678622068    0.9999694355
C67        C    0.0000002602    0.9999998837    1.0748330328
C68        C   -0.0000002454    0.9999999238    0.9250991820
C69        C    0.1122964867    0.9999999038    0.9999662506
C70        C   -0.1122964719    0.9999999038    0.9999659643
O71        O   -0.0286947514    0.4426105439    0.9421513128
O72        O   -0.0286948611    0.4426128536    1.0577853784
O73        O   -0.1154204008    0.4426152798    0.9999731932
O74        O    0.0580371020    0.4426081056    0.9999677133
O75        O    0.1154270142    0.5573846285    0.9999674307
O76        O   -0.0580242606    0.5573916150    0.9999686982
O77        O    0.0286950512    0.5573893765    1.0577850958
O78        O    0.0286951609    0.5573870668    0.9421510303
Cu79      Cu   -0.0339327380    0.4321376573    0.9999715211
Cu80      Cu    0.0339330378    0.5678622632    0.9999648875
C81        C   -0.0000000984    0.4999999774    0.9251012789
C82        C    0.0000003982    0.4999999431    1.0748351297
C83        C   -0.1122963294    0.4999999602    0.9999680572
C84        C    0.1122966292    0.4999999602    0.9999683514
O85        O    0.5286950464    1.0573892368    0.9421512221
O86        O    0.5286951654    1.0573869063    1.0577852877
O87        O    0.6154207005    1.0573844905    0.9999730960
O88        O    0.4419631977    1.0573916648    0.9999676291
O89        O    0.3845732855    0.9426151419    0.9999673397
O90        O    0.5580245603    0.9426081553    0.9999685940
O91        O    0.4713052532    0.9426103834    1.0577849982
O92        O    0.4713051342    0.9426127139    0.9421509327
Cu93      Cu    0.5339330377    1.0678621131    0.9999714311
Cu94      Cu    0.4660672619    0.9321375071    0.9999647893
C95        C    0.5000003921    0.9999998064    0.9251011848
C96        C    0.4999999075    0.9999998138    1.0748350356
C97        C    0.6122966291    0.9999998101    0.9999679546
C98        C    0.3877036705    0.9999998101    0.9999682657
O99        O    0.5286951164    0.5573893465    0.9421519267
O100       O    0.5286952333    0.5573870291    1.0577859923
O101       O    0.6154207694    0.5573846067    0.9999738034
O102       O    0.4419632667    0.5573917810    0.9999683309
O103       O    0.3845733544    0.4426152581    0.9999680458
O104       O    0.5580246292    0.4426082715    0.9999693058
O105       O    0.4713053211    0.4426105062    1.0577857071
O106       O    0.4713052041    0.4426128236    0.9421516416
Cu107     Cu    0.5339331067    0.5678622293    0.9999721352
Cu108     Cu    0.4660673308    0.4321376234    0.9999654986
C109       C    0.5000004623    0.4999999142    0.9251018915
C110       C    0.4999999751    0.4999999385    1.0748357423
C111       C    0.6122966981    0.4999999263    0.9999686650
C112       C    0.3877037394    0.4999999263    0.9999689688
O113       O    1.0573890888    0.1154202287    0.6666262243
O114       O    1.0573867526   -0.0580320451    0.6666253569
O115       O    1.0573843390    0.0286850478    0.6088075355
O116       O    1.0573915145    0.0286968189    0.7244482588
O117       O    0.9426149932   -0.0286910075    0.7244493590
O118       O    0.9426080054   -0.0286963660    0.6088128503
O119       O    0.9426102313   -0.1154198715    0.6666264571
O120       O    0.9426125675    0.0580324023    0.6666273245
Cu121     Cu    1.0678619621    0.0339263482    0.6666251833
Cu122     Cu    0.9321373580   -0.0339259910    0.6666274981
C123       C    0.9999996600    0.1123005715    0.6666261853
C124       C    0.9999996600   -0.1123002143    0.6666264961
C125       C    0.9999996592    0.0000004226    0.5917620233
C126       C    0.9999996609   -0.0000000653    0.7414906581
O127       O    0.9426104718    0.3845800001    0.6666307230
O128       O    0.9426128080    0.5580322739    0.6666298578
O129       O    0.9426152206    0.4713151822    0.6088120353
O130       O    0.9426080469    0.4713034087    0.7244527586
O131       O    1.0573845682    0.5286912351    0.7244538582
O132       O    1.0573915543    0.5286965960    0.6088173495
O133       O    1.0573893293    0.6154201003    0.6666309574
O134       O    1.0573869931    0.4419678265    0.6666318226
Cu135     Cu    0.9321375985    0.4660738806    0.6666296831
Cu136     Cu    1.0678622025    0.5339262198    0.6666319973
C137       C    0.9999999005    0.3876996573    0.6666306833
C138       C    0.9999999005    0.6123004431    0.6666309971
C139       C    0.9999999002    0.4999998078    0.5917665228
C140       C    0.9999999009    0.5000002926    0.7414951576
O141       O    0.5573897071    0.9419691881    0.6666353357
O142       O    0.5573873709    1.1154191258    0.6666361977
O143       O    0.5573849537    1.0286996216    0.7244540217
O144       O    0.5573921364    1.0286950214    0.6088132985
O145       O    0.4426156151    0.9713063211    0.6088121959
O146       O    0.4426086201    0.9713046963    0.7244487046
O147       O    0.4426108496    1.0580304254    0.6666350951
O148       O    0.4426131858    0.8845804878    0.6666342331
Cu149     Cu    0.5678625804    1.0339359424    0.6666363742
Cu150     Cu    0.4321379763    0.9660636712    0.6666340565
C151       C    0.5000002783    0.8876994139    0.6666353744
C152       C    0.5000002783    1.1123001997    0.6666350564
C153       C    0.5000002728    0.9999995650    0.7414995328
C154       C    0.5000002838    1.0000000486    0.5917708980
O155       O    0.4426108379    0.4713053104    0.6088182893
O156       O    0.4426131889    0.4713077721    0.7244523549
O157       O    0.4426155945    0.5580357181    0.6666401625
O158       O    0.4426084202    0.3845710386    0.6666346970
O159       O    0.5573849415    0.4419576523    0.6666344008
O160       O    0.5573919281    0.6154159161    0.6666356538
O161       O    0.5573897102    0.5286943858    0.7244520587
O162       O    0.5573873592    0.5286919241    0.6088179932
Cu163     Cu    0.4321379720    0.4660704312    0.6666384989
Cu164     Cu    0.5678625761    0.5339292649    0.6666318492
C165       C    0.5000002645    0.5000000861    0.5917682486
C166       C    0.5000002836    0.4999996100    0.7415020994
C167       C    0.5000002740    0.6122963290    0.6666350175
C168       C    0.5000002740    0.3877033672    0.6666353305
C399       C    0.5688364200    0.8188334771    0.6666349803
C400       C    0.5000002773    0.8188345542    0.6666352851
C401       C    0.4311641334    0.7499989486    0.6666355008
C402       C    0.4311641324    0.6811622657    0.6666354116
C403       C    0.5000002751    0.6811611886    0.6666351068
C404       C    0.5688364189    0.7499967943    0.6666348911
H405       H    0.6197930459    0.8697897047    0.6666348206
H406       H    0.3802096868    0.7499975674    0.6666357265
H407       H    0.3802075064    0.6302060382    0.6666355713
H408       H    0.6197908656    0.7499981755    0.6666346654
C389       C    0.4311641334    1.1811661767    0.6666348726
C390       C    0.5000002773    1.1811651017    0.6666351249
C391       C    0.5688364200    1.2500007084    0.6666354458
C392       C    0.5688364189    1.3188373902    0.6666355143
C393       C    0.5000002751    1.3188384652    0.6666352619
C394       C    0.4311641324    1.2500028584    0.6666349411
H395       H    0.3802075083    1.1302099483    0.6666346350
H396       H    0.6197908675    1.2500020912    0.6666356326
H397       H    0.6197930441    1.3697936185    0.6666357519
H398       H    0.3802096849    1.2500014757    0.6666347542
C379       C    0.9311636080   -0.2500004858    0.6666212537
C380       C    0.9999997202   -0.1811632334    0.6666276216
C381       C    1.0688358924   -0.1811626332    0.6666351145
C382       C    1.0688359526   -0.2499992854    0.6666362395
C383       C    0.9999998404   -0.3188365378    0.6666298717
C384       C    0.9311636681   -0.3188371380    0.6666223787
H385       H    0.8802069610   -0.2500009301    0.6666157070
H386       H    1.1197903165   -0.1302095436    0.6666398282
H387       H    1.1197925996   -0.2499988411    0.6666417862
H388       H    0.8802092440   -0.3697902275    0.6666176650
C369       C    0.9311636070    0.1811645382    0.6666289801
C370       C    0.9999997202    0.1811634021    0.6666273100
C371       C    1.0688358935    0.2499989783    0.6666267641
C372       C    1.0688359536    0.3188356906    0.6666278884
C373       C    0.9999998404    0.3188368267    0.6666295586
C374       C    0.9311636671    0.2500012505    0.6666301044
H375       H    0.8802069592    0.1302083325    0.6666293842
H376       H    1.1197903183    0.2500003158    0.6666255279
H377       H    1.1197926014    0.3697918963    0.6666274844
H378       H    0.8802092423    0.2499999131    0.6666313407
C359       C    0.4473442821    0.5120685036    0.8562470136
C360       C    0.5000004176    0.4999998381    0.8791931150
C361       C    0.5526565085    0.4879310967    0.8562480969
C362       C    0.5526564638    0.4879310206    0.8103569774
C363       C    0.5000003283    0.4999996861    0.7874108759
C364       C    0.4473442374    0.5120684276    0.8103558940
H365       H    0.4083650979    0.5210025070    0.8732322867
H366       H    0.5916340593    0.4789975314    0.8732319935
H367       H    0.5916356480    0.4789970172    0.7933717042
H368       H    0.4083666866    0.5210019928    0.7933719974
C349       C    0.5302537245    1.0686741489    0.8562453496
C350       C    0.5000003623    0.9999997461    0.8791914783
C351       C    0.4697469703    0.9313252829    0.8562464875
C352       C    0.4697469405    0.9313252225    0.8103553679
C353       C    0.5000003027    0.9999996254    0.7874092392
C354       C    0.5302536947    1.0686740886    0.8103542301
H355       H    0.5526490926    1.1195110892    0.8732306026
H356       H    0.4473525817    0.8804905606    0.8732304042
H357       H    0.4473515724    0.8804882822    0.7933701149
H358       H    0.5526480833    1.1195088109    0.7933703133
C339       C    0.2002116706    0.4692583458    1.0355277743
C340       C    0.1811635072    0.4999999518    0.9999685058
C341       C    0.2309520209    0.5307415493    0.9644093916
C342       C    0.2997886980    0.5307415408    0.9644095459
C343       C    0.3188368614    0.4999999348    0.9999688144
C344       C    0.2690483477    0.4692583373    1.0355279286
H345       H    0.1633552383    0.4465015788    1.0618507549
H346       H    0.2168542138    0.5534973496    0.9380874221
H347       H    0.3366451303    0.5534983078    0.9380865653
H348       H    0.2831461548    0.4465025369    1.0618498981
C329       C   -0.2107586728    0.5096475564    0.9606179870
C330       C   -0.1811631301    0.4999999518    0.9999682092
C331       C   -0.2204042730    0.4903523386    1.0393185833
C332       C   -0.2892409585    0.4903523301    1.0393187352
C333       C   -0.3188365012    0.4999999348    0.9999685130
C334       C   -0.2795953584    0.5096475480    0.9606181389
H335       H   -0.1817100346    0.5167892961    0.9314884893
H336       H   -0.1984989993    0.4832109106    1.0684467232
H337       H   -0.3182895968    0.4832105905    1.0684482329
H338       H   -0.3015006320    0.5167889760    0.9314899990
C319       C   -0.0422759792    0.5259086571    0.8562432752
C320       C   -0.0000000986    0.5000000562    0.8791893378
C321       C    0.0422757818    0.4740915341    0.8562442808
C322       C    0.0422757816    0.4740916128    0.8103531613
C323       C   -0.0000000990    0.5000002138    0.7874070987
C324       C   -0.0422759794    0.5259087359    0.8103521557
H325       H   -0.0735711115    0.5450876930    0.8732285772
H326       H    0.0735695763    0.4549132598    0.8732281487
H327       H    0.0735709139    0.4549125770    0.7933678594
H328       H   -0.0735697739    0.5450870101    0.7933682879
C309       C    0.0370478551    1.0687672819    0.8562399418
C310       C   -0.0000002689    0.9999999266    0.8791860396
C311       C   -0.0370484162    0.9312325739    0.8562410179
C312       C   -0.0370484397    0.9312325766    0.8103498984
C313       C   -0.0000003157    0.9999999320    0.7874038005
C314       C    0.0370478317    1.0687672846    0.8103488222
H315       H    0.0644731070    1.1196729844    0.8732252176
H316       H   -0.0644724784    0.8803290457    0.8732249119
H317       H   -0.0644736916    0.8803268741    0.7933646226
H318       H    0.0644718938    1.1196708129    0.7933649283
C299       C   -0.2872925176    0.9942484389    1.0395708089
C300       C   -0.3188366144    0.9999998335    0.9999674569
C301       C   -0.2815440183    1.0057512516    0.9603636075
C302       C   -0.2127073252    1.0057512751    0.9603631100
C303       C   -0.1811632284    0.9999998804    0.9999664620
C304       C   -0.2184558245    0.9942484623    1.0395703114
H305       H   -0.3148987251    0.9899908956    1.0688879442
H306       H   -0.3048916665    1.0100085956    0.9310480937
H307       H   -0.1851011177    1.0100088183    0.9310459747
H308       H   -0.1951081763    0.9899911183    1.0688858252
C289       C    0.2157240424    1.0002841578    1.0397092316
C290       C    0.1811634090    0.9999998804    0.9999667545
C291       C    0.2154394452    0.9997155795    0.9602247810
C292       C    0.2842761148    0.9997155561    0.9602252847
C293       C    0.3188367482    0.9999998335    0.9999677618
C294       C    0.2845607120    1.0002841344    1.0397097353
H295       H    0.1903508727    1.0004946143    1.0691286146
H296       H    0.1898588720    0.9995051493    0.9308062829
H297       H    0.3096492845    0.9995050996    0.9308059017
H298       H    0.3101412852    1.0004945646    1.0691282334
C279       C    0.5201274660    0.4530551193    0.1895816829
C280       C    0.5000002681    0.5000001369    0.2125277862
C281       C    0.4798729725    0.5469450884    0.1895827700
C282       C    0.4798728748    0.5469450223    0.1436916504
C283       C    0.5000000728    0.5000000046    0.1207455471
C284       C    0.5201273684    0.4530550531    0.1436905634
H285       H    0.5350268927    0.4183036617    0.2065669547
H286       H    0.4649742551    0.5816951093    0.2065666679
H287       H    0.4649734482    0.5816964799    0.1267063786
H288       H    0.5350260858    0.4183050322    0.1267066654
C269       C    0.4611907895    0.4313592369    0.5229123070
C270       C    0.5000001739    0.4999999919    0.5458583568
C271       C    0.5388094676    0.5686406527    0.5229132869
C272       C    0.5388093769    0.5686405585    0.4770221674
C273       C    0.4999999926    0.4999998035    0.4540761177
C274       C    0.4611906989    0.4313591427    0.4770211875
H275       H    0.4324618319    0.3805473192    0.5398976185
H276       H    0.5675372641    0.6194504678    0.5398971452
H277       H    0.5675383346    0.6194524762    0.4600368559
H278       H    0.4324629024    0.3805493276    0.4600373292
C259       C    0.5649664352    1.0127769416    0.1895806309
C260       C    0.4999999385    0.9999996569    0.2125267453
C261       C    0.4350334315    0.9872224245    0.1895817402
C262       C    0.4350334212    0.9872224768    0.1436906206
C263       C    0.4999999178    0.9999997615    0.1207445062
C264       C    0.5649664249    1.0127769939    0.1436895113
H265       H    0.6130585248    1.0222354123    0.2065658944
H266       H    0.3869434056    0.9777643195    0.2065656464
H267       H    0.3869413315    0.9777640061    0.1267053571
H268       H    0.6130564508    1.0222350990    0.1267056051
C249       C    0.5598197281    1.0004131989    0.4770254833
C250       C    0.5000004071    1.0000000679    0.4540793628
C251       C    0.4401810450    0.9995869305    0.4770243619
C252       C    0.4401810039    0.9995869241    0.5229154815
C253       C    0.5000003249    1.0000000550    0.5458616019
C254       C    0.5598196870    1.0004131924    0.5229166028
H255       H    0.6041015936    1.0007190279    0.4600402242
H256       H    0.3959011031    0.9992811194    0.4600404512
H257       H    0.3958991385    0.9992810951    0.5399007405
H258       H    0.6040996289    1.0007190036    0.5399005135
C239       C   -0.0686922841    0.4618070452    0.1895816208
C240       C    0.0000004064    0.5000000771    0.2125277165
C241       C    0.0686930941    0.5381930644    0.1895826925
C242       C    0.0686930913    0.5381930197    0.1436915730
C243       C    0.0000004009    0.4999999878    0.1207454774
C244       C   -0.0686922868    0.4618070006    0.1436905013
H245       H   -0.1195427152    0.4335343144    0.2065668983
H246       H    0.1195413533    0.5664646196    0.2065665848
H247       H    0.1195435225    0.5664657505    0.1267062955
H248       H   -0.1195405460    0.4335354454    0.1267066090
C229       C    0.2500026383    0.6811662053    0.3333037765
C230       C    0.1811654320    0.6811651554    0.3333024151
C231       C    0.1811649224    0.7500007746    0.3333012435
C232       C    0.2500016191    0.8188374438    0.3333014333
C233       C    0.3188388254    0.8188384938    0.3333027947
C234       C    0.3188393349    0.7500028745    0.3333039663
H235       H    0.2500030155    0.6302099677    0.3333046438
H236       H    0.1302118670    0.7500021759    0.3333002358
H237       H    0.2500012419    0.8697936815    0.3333005660
H238       H    0.3697923904    0.7500014733    0.3333049740
C219       C   -0.2500012188    0.1811623208    0.3333022609
C220       C   -0.3188384525    0.1811612159    0.3333031080
C221       C   -0.3188390171    0.2499968077    0.3333037651
C222       C   -0.2500023479    0.3188335044    0.3333035750
C223       C   -0.1811651141    0.3188346093    0.3333027278
C224       C   -0.1811645496    0.2499990175    0.3333020708
H225       H   -0.2500008009    0.1302061035    0.3333017745
H226       H   -0.3697920929    0.2499981683    0.3333043922
H227       H   -0.2500027658    0.3697897217    0.3333040614
H228       H   -0.1302114738    0.2499976568    0.3333014437
C209       C   -0.0369465220    0.5318259790    0.5229116175
C210       C   -0.0000001038    0.4999997742    0.5458577304
C211       C    0.0369463106    0.4681735359    0.5229127238
C212       C    0.0369463067    0.4681735023    0.4770216042
C213       C   -0.0000001116    0.4999997071    0.4540754913
C214       C   -0.0369465259    0.5318259454    0.4770204979
H215       H   -0.0642964651    0.5553856620    0.5398968821
H216       H    0.0642950874    0.4446148850    0.5398966289
H217       H    0.0642962498    0.4446138193    0.4600363396
H218       H   -0.0642953027    0.5553845963    0.4600365928
C199       C    0.0476837413    0.0668363087    0.1895793447
C200       C    0.0000002719    0.0000001253    0.2125254773
C201       C   -0.0476832015   -0.0668361386    0.1895804904
C202       C   -0.0476832053   -0.0668362191    0.1436893708
C203       C    0.0000002641   -0.0000000357    0.1207432382
C204       C    0.0476837374    0.0668362281    0.1436882251
H205       H    0.0829818969    0.1163125040    0.2065645947
H206       H   -0.0829798451   -0.1163101591    0.2065644100
H207       H   -0.0829813609   -0.1163124144    0.1267041207
H208       H    0.0829803811    0.1163102487    0.1267043054
C189       C   -0.2500005145   -0.1811644386    0.3333025584
C190       C   -0.1811632723   -0.1811633168    0.3333005559
C191       C   -0.1811626909   -0.2499989001    0.3332989512
C192       C   -0.2499993516   -0.3188356052    0.3332993491
C193       C   -0.3188365938   -0.3188367271    0.3333013516
C194       C   -0.3188371752   -0.2500011438    0.3333029563
H195       H   -0.2500009449   -0.1302082276    0.3333037463
H196       H   -0.1302096089   -0.2500002482    0.3332974688
H197       H   -0.2499989212   -0.3697918163    0.3332981612
H198       H   -0.3697902573   -0.2499997957    0.3333044386
C179       C    0.3188356484    0.2499993947    0.3332998828
C180       C    0.3188367721    0.3188366388    0.3333015108
C181       C    0.2500011906    0.3188372222    0.3333025826
C182       C    0.1811644855    0.2500005614    0.3333020265
C183       C    0.1811633618    0.1811633173    0.3333003985
C184       C    0.2499989432    0.1811627340    0.3332993267
H185       H    0.3697918580    0.2499989629    0.3332990894
H186       H    0.2499998440    0.3697903056    0.3333037877
H187       H    0.1302082759    0.2500009933    0.3333028199
H188       H    0.2500002899    0.1302096506    0.3332981216
C169       C    0.0313185104   -0.0374267371    0.5229082800
C170       C   -0.0000003245    0.0000002654    0.5458542899
C171       C   -0.0313191432    0.0374271109    0.5229091803
C172       C   -0.0313191269    0.0374269538    0.4770180607
C173       C   -0.0000002920   -0.0000000487    0.4540720508
C174       C    0.0313185267   -0.0374268942    0.4770171604
H175       H    0.0545025710   -0.0651323240    0.5398936208
H176       H   -0.0545022247    0.0651316296    0.5398930091
H177       H   -0.0545031875    0.0651325407    0.4600327198
H178       H    0.0545016081   -0.0651314129    0.4600333316
loop_
_geom_bond_atom_site_label_1
_geom_bond_atom_site_label_2
_geom_bond_distance
_geom_bond_site_symmetry_2
_ccdc_geom_bond_type
O29         C39 1.250       .   A
O29        Cu37 1.951       .   S
O22        Cu24 1.951       .   S
O22         C25 1.250       .   A
O20        Cu24 1.951       .   S
O20         C27 1.251       .   A
O21        Cu24 1.951       .   S
O21         C26 1.250       .   A
C249       C250 1.540       .   A
C249       H255 1.140       .   S
C249       C254 1.540       .   A
O48        Cu52 1.951       .   S
O49        Cu52 1.951       .   S
O50        Cu52 1.951       .   S
Cu51       Cu52 2.630       .   S
O47        Cu52 1.951       .   S
O43        Cu51 1.951       .   S
O44        Cu51 1.951       .   S
O45        Cu51 1.951       .   S
O46        Cu51 1.951       .   S
C242       C243 1.540       .   A
C243        C82 1.541   1_554   S
C243       C244 1.540       .   A
C241       C242 1.540       .   A
C242       H247 1.140       .   S
C240       C241 1.540       .   A
C241       H246 1.140       .   S
C239       C240 1.540       .   A
C28        C240 1.541       .   S
C244       H248 1.140       .   S
C239       C244 1.540       .   A
O144      Cu149 1.951       .   S
Cu149     Cu150 2.630       .   S
O141      Cu149 1.951       .   S
O142      Cu149 1.951       .   S
O143      Cu149 1.951       .   S
C344       H348 1.140       .   S
C342       H347 1.140       .   S
C341       H346 1.140       .   S
C339       H345 1.140       .   S
O59         C69 1.250       .   A
O59        Cu65 1.951       .   S
O58         C68 1.250       .   A
O58        Cu65 1.951       .   S
C271       H276 1.140       .   S
O50         C53 1.250       .   A
O57         C67 1.250       .   A
O57        Cu65 1.951       .   S
C219       H225 1.140       .   S
C221       H226 1.140       .   S
C222       H227 1.140       .   S
O162      Cu164 1.951       .   S
O162       C165 1.250       .   A
O160       C167 1.251       .   A
O160      Cu164 1.951       .   S
O161       C166 1.250       .   A
O161      Cu164 1.951       .   S
C204       H208 1.140       .   S
C201       H206 1.140       .   S
C202       H207 1.140       .   S
C199       H205 1.140       .   S
O30         C40 1.250       .   A
O35         C40 1.250       .   A
C40        C260 1.541       .   S
O31         C41 1.250       .   A
O34         C41 1.251       .   A
C41        C220 1.541   1_665   S
C42        C233 1.541       .   S
O33         C42 1.250       .   A
O32         C42 1.250       .   A
O75        Cu80 1.951       .   S
O77        Cu80 1.951       .   S
O76        Cu80 1.951       .   S
Cu79       Cu80 2.630       .   S
O78        Cu80 1.951       .   S
C289       H295 1.140       .   S
C292       H297 1.140       .   S
C291       H296 1.140       .   S
C294       H298 1.140       .   S
C349       C354 1.540       .   A
C349       C350 1.540       .   A
C349       H355 1.140       .   S
C342       C343 1.540       .   A
C341       C342 1.540       .   A
C343       C112 1.541       .   S
C343       C344 1.540       .   A
C339       C340 1.540       .   A
C340       C341 1.540       .   A
C340        C84 1.541       .   S
C339       C344 1.540       .   A
C289       C294 1.540       .   A
C289       C290 1.540       .   A
C283       C284 1.540       .   A
C284       H288 1.140       .   S
C279       C284 1.540       .   A
C282       C283 1.540       .   A
C283       C110 1.541   1_554   S
C282       H287 1.140       .   S
C281       C282 1.540       .   A
C281       H286 1.140       .   S
C280       C281 1.540       .   A
C56        C280 1.541       .   S
C279       C280 1.540       .   A
C184       H188 1.140       .   S
C179       H185 1.140       .   S
C182       H187 1.140       .   S
O7         Cu10 1.951       .   S
O6         Cu10 1.951       .   S
O5         Cu10 1.951       .   S
Cu9        Cu10 2.630       .   S
O8         Cu10 1.951       .   S
O102       C112 1.250       .   A
O103       C112 1.250       .   A
C111       C333 1.541   1_655   S
O101       C111 1.250       .   A
O104       C111 1.251       .   A
O100       C110 1.250       .   A
O105       C110 1.250       .   A
O103      Cu108 1.951       .   S
O104      Cu108 1.951       .   S
O105      Cu108 1.951       .   S
O106      Cu108 1.951       .   S
Cu107     Cu108 2.630       .   S
O88        Cu93 1.951       .   S
O88         C98 1.250       .   A
O89         C98 1.250       .   A
O89        Cu94 1.951       .   S
O85        Cu93 1.951       .   S
O85         C95 1.250       .   A
O86        Cu93 1.951       .   S
O86         C96 1.250       .   A
O87        Cu93 1.951       .   S
O87         C97 1.250       .   A
O100      Cu107 1.951       .   S
O101      Cu107 1.951       .   S
O102      Cu107 1.951       .   S
O99       Cu107 1.951       .   S
C384       H388 1.140       .   S
C382       H387 1.140       .   S
C381       H386 1.140       .   S
C379       H385 1.140       .   S
O17        Cu23 1.951       .   S
O17         C27 1.250       .   A
O16         C26 1.250       .   A
O16        Cu23 1.951       .   S
O15        Cu23 1.951       .   S
O15         C25 1.250       .   A
O19        Cu24 1.951       .   S
O19         C28 1.250       .   A
O18         C28 1.250       .   A
O18        Cu23 1.951       .   S
C232       C233 1.540       .   A
C231       C232 1.540       .   A
C232       H237 1.140       .   S
C233       C234 1.540       .   A
C26        C230 1.541       .   S
C230       C231 1.540       .   A
C229       C230 1.540       .   A
C231       H236 1.140       .   S
C234       H238 1.140       .   S
C229       C234 1.540       .   A
C239       H245 1.140       .   S
O127       C137 1.250       .   A
O127      Cu135 1.951       .   S
O120      Cu122 1.951       .   S
O120       C123 1.250       .   A
O128      Cu135 1.951       .   S
O128       C138 1.250       .   A
O129       C139 1.250       .   A
O129      Cu135 1.951       .   S
C331       H336 1.140       .   S
C332       H337 1.140       .   S
C329       H335 1.140       .   S
C334       H338 1.140       .   S
C192       H197 1.140       .   S
C252       H257 1.140       .   S
C251       H256 1.140       .   S
C254       H258 1.140       .   S
C309       C310 1.540       .   A
C309       C314 1.540       .   A
C309       H315 1.140       .   S
C304       H308 1.140       .   S
C299       C304 1.540       .   A
C303       C304 1.540       .   A
C302       H307 1.140       .   S
C302       C303 1.540       .   A
C301       C302 1.540       .   A
C70        C303 1.541       .   S
C97        C300 1.541   1_655   S
C299       C300 1.540       .   A
C300       C301 1.540       .   A
C301       H306 1.140       .   S
C39        C250 1.541       .   S
O36         C39 1.250       .   A
O146       C153 1.251       .   A
C153       C353 1.541       .   S
O143       C153 1.250       .   A
C152       C390 1.541       .   S
O147       C152 1.250       .   A
O142       C152 1.250       .   A
C151       C400 1.541       .   S
O148       C151 1.250       .   A
O141       C151 1.250       .   A
C401       C402 1.540       .   A
C402       C403 1.540       .   A
C402       H407 1.140       .   S
C399       C404 1.540       .   A
C404       H408 1.140       .   S
C403       C404 1.540       .   A
O144       C154 1.250       .   A
O145       C154 1.250       .   A
C253       C154 1.541       .   S
C390       C391 1.540       .   A
C391       H396 1.140       .   S
C391       C392 1.540       .   A
C389       C390 1.540       .   A
C392       C393 1.540       .   A
C393       C394 1.540       .   A
C168       C393 1.541   1_545   S
C392       H397 1.140       .   S
C394       H398 1.140       .   S
C389       C394 1.540       .   A
C399       C400 1.540       .   A
C399       H405 1.140       .   S
C269       C274 1.540       .   A
C273       C274 1.540       .   A
C274       H278 1.140       .   S
C272       H277 1.140       .   S
C272       C273 1.540       .   A
C271       C272 1.540       .   A
C55        C273 1.541       .   S
C269       C270 1.540       .   A
C270       C165 1.541       .   S
C270       C271 1.540       .   A
C279       H285 1.140       .   S
O62        Cu66 1.951       .   S
O63        Cu66 1.951       .   S
O61        Cu66 1.951       .   S
O64        Cu66 1.951       .   S
Cu65       Cu66 2.630       .   S
O60        Cu65 1.951       .   S
O130      Cu135 1.951       .   S
Cu135     Cu136 2.630       .   S
O131      Cu136 1.951       .   S
O133      Cu136 1.951       .   S
O132      Cu136 1.951       .   S
O134      Cu136 1.951       .   S
C371       H376 1.140       .   S
C372       H377 1.140       .   S
C369       H375 1.140       .   S
C374       H378 1.140       .   S
O48         C55 1.251       .   A
O49         C54 1.250       .   A
O43         C53 1.250       .   A
O44         C54 1.250       .   A
O45         C55 1.250       .   A
O46         C56 1.250       .   A
O47         C56 1.250       .   A
C214       H218 1.140       .   S
C264       H268 1.140       .   S
C209       H215 1.140       .   S
C212       H217 1.140       .   S
C211       H216 1.140       .   S
O60         C70 1.250       .   A
O61         C70 1.250       .   A
Cu93       Cu94 2.630       .   S
O92        Cu94 1.951       .   S
O91        Cu94 1.951       .   S
O90        Cu94 1.951       .   S
C354       H358 1.140       .   S
C353       C354 1.540       .   A
C350       C351 1.540       .   A
C351       H356 1.140       .   S
C351       C352 1.540       .   A
C350        C95 1.541       .   S
C352       C353 1.540       .   A
C352       H357 1.140       .   S
C259       H265 1.140       .   S
C261       H266 1.140       .   S
C262       H267 1.140       .   S
C359       C364 1.540       .   A
C359       H365 1.140       .   S
C359       C360 1.540       .   A
Cu23       Cu24 2.630       .   S
O113       C123 1.250       .   A
C123       C370 1.541       .   S
C126       C313 1.541   1_645   S
O117       C126 1.250       .   A
O116       C126 1.250       .   A
O119       C124 1.250       .   A
C380       C124 1.541       .   S
O114       C124 1.250       .   A
C125       C170 1.541   1_655   S
O118       C125 1.251       .   A
O115       C125 1.250       .   A
O90         C97 1.251       .   A
C96        C263 1.541   1_556   S
O91         C96 1.250       .   A
O92         C95 1.250       .   A
C293        C98 1.541       .   S
C229       H235 1.140       .   S
C224       H228 1.140       .   S
C219       C224 1.540       .   A
C223       C224 1.540       .   A
C220       C221 1.540       .   A
C221       C222 1.540       .   A
C219       C220 1.540       .   A
C25        C223 1.541       .   S
C222       C223 1.540       .   A
O131       C140 1.250       .   A
O130       C140 1.250       .   A
O133       C138 1.250       .   A
O132       C139 1.251       .   A
O134       C137 1.250       .   A
Cu163     Cu164 2.630       .   S
O159      Cu164 1.951       .   S
O157      Cu163 1.951       .   S
O156      Cu163 1.951       .   S
O155      Cu163 1.951       .   S
O158      Cu163 1.951       .   S
C324       H328 1.140       .   S
C319       H325 1.140       .   S
C322       H327 1.140       .   S
C321       H326 1.140       .   S
O145      Cu150 1.951       .   S
O146      Cu150 1.951       .   S
O147      Cu150 1.951       .   S
O148      Cu150 1.951       .   S
C319       C320 1.540       .   A
C319       C324 1.540       .   A
C310       C311 1.540       .   A
C311       H316 1.140       .   S
C311       C312 1.540       .   A
C68        C310 1.541       .   S
C312       C313 1.540       .   A
C313       C314 1.540       .   A
C312       H317 1.140       .   S
C314       H318 1.140       .   S
C27        C213 1.541       .   S
O159       C168 1.250       .   A
O158       C168 1.250       .   A
C169       C170 1.540       .   A
C169       C174 1.540       .   A
C169       H175 1.140       .   S
O156       C166 1.250       .   A
C166       C363 1.541       .   S
O157       C167 1.250       .   A
C167       C403 1.541       .   S
O155       C165 1.250       .   A
C369       C374 1.540       .   A
C369       C370 1.540       .   A
C364       H368 1.140       .   S
C363       C364 1.540       .   A
C360       C361 1.540       .   A
C109       C360 1.541       .   S
C361       C362 1.540       .   A
C361       H366 1.140       .   S
C362       H367 1.140       .   S
C362       C363 1.540       .   A
C179       C184 1.540       .   A
C183       C184 1.540       .   A
C179       C180 1.540       .   A
C53        C180 1.541       .   S
C180       C181 1.540       .   A
C181       H186 1.140       .   S
C181       C182 1.540       .   A
C182       C183 1.540       .   A
C183        C12 1.541       .   S
C189       H195 1.140       .   S
C189       C194 1.540       .   A
C189       C190 1.540       .   A
C260       C261 1.540       .   A
C261       C262 1.540       .   A
C259       C260 1.540       .   A
C262       C263 1.540       .   A
C263       C264 1.540       .   A
C259       C264 1.540       .   A
C269       H275 1.140       .   S
O74        Cu79 1.951       .   S
O71        Cu79 1.951       .   S
O73        Cu79 1.951       .   S
O72        Cu79 1.951       .   S
O119      Cu122 1.951       .   S
O118      Cu122 1.951       .   S
O117      Cu122 1.951       .   S
Cu121     Cu122 2.630       .   S
C400       C401 1.540       .   A
C401       H406 1.140       .   S
O113      Cu121 1.951       .   S
O116      Cu121 1.951       .   S
O115      Cu121 1.951       .   S
O114      Cu121 1.951       .   S
C209       C214 1.540       .   A
C213       C214 1.540       .   A
C139       C210 1.541   1_655   S
C210       C211 1.540       .   A
C209       C210 1.540       .   A
O78         C81 1.250       .   A
C211       C212 1.540       .   A
C212       C213 1.540       .   A
O75         C84 1.250       .   A
O74         C84 1.250       .   A
O77         C82 1.250       .   A
O76         C83 1.251       .   A
O71         C81 1.250       .   A
O73         C83 1.250       .   A
O72         C82 1.250       .   A
O106       C109 1.250       .   A
O63         C68 1.250       .   A
O62         C69 1.251       .   A
C69        C290 1.541       .   S
C67        C203 1.541   1_566   S
O64         C67 1.250       .   A
C171       H176 1.140       .   S
C172       H177 1.140       .   S
C174       H178 1.140       .   S
C320       C321 1.540       .   A
C81        C320 1.541       .   S
C321       C322 1.540       .   A
C322       C323 1.540       .   A
C140       C323 1.541   1_655   S
C323       C324 1.540       .   A
C329       C330 1.540       .   A
C329       C334 1.540       .   A
O6          C13 1.251       .   A
C13        C173 1.541       .   S
O3          C13 1.250       .   A
O7          C12 1.250       .   A
O2          C12 1.250       .   A
C11        C190 1.541       .   S
O1          C11 1.250       .   A
O8          C11 1.250       .   A
O5          C14 1.250       .   A
O4          C14 1.250       .   A
C200        C14 1.541       .   S
C137       C373 1.541       .   S
O31        Cu37 1.951       .   S
O30        Cu37 1.951       .   S
O32        Cu37 1.951       .   S
Cu37       Cu38 2.630       .   S
O33        Cu38 1.951       .   S
O35        Cu38 1.951       .   S
O34        Cu38 1.951       .   S
O36        Cu38 1.951       .   S
C383       C138 1.541   1_545   S
C331       C332 1.540       .   A
C330       C331 1.540       .   A
C83        C330 1.541       .   S
C250       C251 1.540       .   A
C251       C252 1.540       .   A
C252       C253 1.540       .   A
C253       C254 1.540       .   A
O4          Cu9 1.951       .   S
O3          Cu9 1.951       .   S
O2          Cu9 1.951       .   S
O1          Cu9 1.951       .   S
C54        C193 1.541   1_665   S
C170       C171 1.540       .   A
C171       C172 1.540       .   A
C172       C173 1.540       .   A
C173       C174 1.540       .   A
C379       C384 1.540       .   A
C379       C380 1.540       .   A
C373       C374 1.540       .   A
C372       C373 1.540       .   A
C371       C372 1.540       .   A
C370       C371 1.540       .   A
C194       H198 1.140       .   S
C193       C194 1.540       .   A
C192       C193 1.540       .   A
C191       C192 1.540       .   A
C191       H196 1.140       .   S
C190       C191 1.540       .   A
C199       C204 1.540       .   A
C199       C200 1.540       .   A
C299       H305 1.140       .   S
C293       C294 1.540       .   A
C290       C291 1.540       .   A
C291       C292 1.540       .   A
C292       C293 1.540       .   A
O99        C109 1.250       .   A
C389       H395 1.140       .   S
C203       C204 1.540       .   A
C202       C203 1.540       .   A
C201       C202 1.540       .   A
C200       C201 1.540       .   A
C332       C333 1.540       .   A
C333       C334 1.540       .   A
C383       C384 1.540       .   A
C382       C383 1.540       .   A
C381       C382 1.540       .   A
C380       C381 1.540       .   A
