data_rhr_v1-4c_Cu_1_Ch_1B_4H_Ch
_audit_creation_date              2020-02-03
_audit_creation_method            'tobacco_3.0'
_symmetry_space_group_name_H-M    'P1'
_symmetry_Int_Tables_number       1
_symmetry_cell_setting            triclinic
loop_
_symmetry_equiv_pos_as_xyz
  x,y,z
_cell_length_a                    37.84434717123779
_cell_length_b                    37.85078915413915
_cell_length_c                    37.844354817982925
_cell_angle_alpha                 90.00011462284024
_cell_angle_beta                  89.99863312467963
_cell_angle_gamma                 89.99996553916488
loop_
_atom_site_label
_atom_site_type_symbol
_atom_site_fract_x
_atom_site_fract_y
_atom_site_fract_z
O1         O    0.8797238479    0.5362539092    0.8286364128
O2         O    0.8282562429    0.4637444624    0.8796822922
O3         O    0.8797317627    0.4637573497    0.8286237212
O4         O    0.8282445803    0.5362410194    0.8796987099
O5         O    0.7868644895    0.5362426478    0.8379800049
O6         O    0.8383517378    0.4637642611    0.7869050863
O7         O    0.7868761521    0.4637460908    0.8379635872
O8         O    0.8383437571    0.5362555376    0.7869177078
Cu9       Cu    0.8577650490    0.4999967444    0.8579675994
Cu10      Cu    0.8088349510    0.5000032556    0.8086324006
C11        C    0.8666223189    0.5469455722    0.8002496335
C12        C    0.7999776811    0.4530544278    0.8663503665
C13        C    0.8666354588    0.4530773210    0.8002347662
C14        C    0.7999645412    0.5469226790    0.8663652338
O15        O    0.7803649280    0.6952507395   -0.0023891319
O16        O    0.7292149535    0.7465639129    0.0701631663
O17        O    0.7804623607    0.6952863152    0.0701196786
O18        O    0.7291137897    0.7465320793   -0.0023456394
O19        O    0.6875482082    0.7050043471   -0.0022673975
O20        O    0.7388968389    0.6537586492    0.0701926365
O21        O    0.6876493720    0.7050361807    0.0702414082
O22        O    0.7387993465    0.6537230073   -0.0023108900
Cu23      Cu    0.7585818796    0.7246981523    0.0338821711
Cu24      Cu    0.7094324205    0.6755887679    0.0339701053
C25        C    0.7671238167    0.6669200365   -0.0130471772
C26        C    0.7008904833    0.7333668838    0.0808994535
C27        C    0.7672528710    0.6669676522    0.0808369320
C28        C    0.7007614291    0.7333192681   -0.0129846556
O29        O    0.5706558604    0.7946704812    0.8802778848
O30        O    0.4979910836    0.8459958676    0.8293038191
O31        O    0.4981474781    0.7947174297    0.8805500165
O32        O    0.5704994529    0.8459526612    0.8290279564
O33        O    0.5703164723    0.8044256183    0.7874619216
O34        O    0.4979697817    0.7531904521    0.8389840288
O35        O    0.4978081030    0.8044688247    0.7877377844
O36        O    0.5704728798    0.7531434383    0.8387118501
Cu37      Cu    0.5343378736    0.8241239380    0.8585828377
Cu38      Cu    0.5341260898    0.7750153679    0.8094328315
C39        C    0.5812781202    0.7663383220    0.8670106107
C40        C    0.4871858432    0.8328009839    0.8010050585
C41        C    0.4873945727    0.7664006633    0.8673658646
C42        C    0.5810693907    0.8327386426    0.8006498046
O43        O    0.7380852089    0.9636792051    0.6871919788
O44        O    0.6867222395    1.0361712124    0.7383682413
O45        O    0.7380847063    1.0361757661    0.6871959444
O46        O    0.6867189940    0.9636746527    0.7383680013
O47        O    0.7281919586    0.9636738202    0.7799943807
O48        O    0.7795576022    1.0361696505    0.7288222566
O49        O    0.7281952042    1.0361703798    0.7799946207
O50        O    0.7795581736    0.9636783726    0.7288183582
Cu51      Cu    0.7086178952    0.9999275771    0.7089826245
Cu52      Cu    0.7576625179    0.9999220078    0.7582039749
C53        C    0.7663958705    0.9529905115    0.7004596149
C54        C    0.6998845426    1.0468590734    0.7667269846
C55        C    0.7663936712    1.0468587648    0.7004618484
C56        C    0.6998867419    0.9529908201    0.7667247510
O57        O    0.0710171688    0.6959538267    0.7820092286
O58        O   -0.0013929117    0.7471609480    0.7305560031
O59        O   -0.0014915278    0.6959217053    0.7818415534
O60        O    0.0711157905    0.7471968086    0.7307199444
O61        O    0.0712301728    0.7056379867    0.6891854411
O62        O   -0.0013718618    0.6543629545    0.7403071291
O63        O   -0.0012785294    0.7056021260    0.6890214999
O64        O    0.0711315511    0.6543950048    0.7404747253
Cu65      Cu    0.0347993999    0.7253510475    0.7600717093
Cu66      Cu    0.0349392395    0.6762049052    0.7109590191
C67        C    0.0817505582    0.6676232153    0.7688283688
C68        C   -0.0120119188    0.7339327375    0.7022023596
C69        C   -0.0121334156    0.6675831793    0.7686141613
C70        C    0.0818720550    0.7339727735    0.7024165671
O71        O    0.7884276681    0.8048276282    0.4982210623
O72        O    0.8395586907    0.7537544729    0.5709532632
O73        O    0.7882031363    0.8049233182    0.5707295441
O74        O    0.8397869615    0.7536550488    0.4984447994
O75        O    0.8812644498    0.7952707429    0.4985184925
O76        O    0.8296805743    0.8465389364    0.5707979531
O77        O    0.8810361789    0.7953701670    0.5710269563
O78        O    0.8299051564    0.8464433223    0.4982947553
Cu79      Cu    0.8102092780    0.7754922040    0.5345827358
Cu80      Cu    0.8592545690    0.8247055912    0.5346652827
C81        C    0.8016275246    0.8331669236    0.4875342154
C82        C    0.8678363225    0.7670308716    0.5817138032
C83        C    0.8013339062    0.8332892640    0.5814178966
C84        C    0.8681299408    0.7669085312    0.4878301220
O85        O    0.5704825727    0.1539332380    0.8290596646
O86        O    0.4981498317    0.2052084186    0.8805575102
O87        O    0.4979741567    0.1539150211    0.8293261491
O88        O    0.5706582589    0.2052303700    0.8802947644
O89        O    0.5704948827    0.2467445927    0.8387160049
O90        O    0.4978160646    0.1954291784    0.7877474390
O91        O    0.4979864555    0.2467226413    0.8389787506
O92        O    0.5703191965    0.1954474607    0.7874809051
Cu93      Cu    0.5343288224    0.1757835799    0.8586040763
Cu94      Cu    0.5341402058    0.2248722995    0.8094343390
C95        C    0.5810656753    0.1671302082    0.8006762196
C96        C    0.4874033530    0.2335256711    0.8673621957
C97        C    0.4871820787    0.1671037243    0.8010228184
C98        C    0.5812869495    0.2335521550    0.8670155968
O99        O    0.7387908218    0.3461404694   -0.0023013410
O100       O    0.6876478165    0.2948141919    0.0702463488
O101       O    0.7388966706    0.3460902859    0.0702074488
O102       O    0.6875382278    0.2948606422   -0.0022624364
O103       O    0.7291033258    0.2533323982   -0.0023518415
O104       O    0.7804616921    0.3045621123    0.0701127600
O105       O    0.7292129146    0.2532859480    0.0701569438
O106       O    0.7803559198    0.3046122254   -0.0023907460
Cu107     Cu    0.7094250883    0.3242658569    0.0339829565
Cu108     Cu    0.7585786480    0.2751605605    0.0338726464
C109       C    0.7671151182    0.3329440219   -0.0130425323
C110       C    0.7008886182    0.2664823954    0.0808981352
C111       C    0.7672506159    0.3328819417    0.0808415589
C112       C    0.7007531205    0.2665444756   -0.0129859561
O113       O    0.8808936362    0.4636580880    0.2389824019
O114       O    0.8296256090    0.5361512160    0.1877153486
O115       O    0.8808911460    0.5361546490    0.2389823055
O116       O    0.8296243667    0.4636546563    0.1877117037
O117       O    0.7880733984    0.4636544909    0.2292622035
O118       O    0.8393402446    0.5361492005    0.2805327364
O119       O    0.7880746406    0.5361510506    0.2292658484
O120       O    0.8393426679    0.4636579225    0.2805329017
Cu121     Cu    0.8590502243    0.4999069595    0.2095559728
Cu122     Cu    0.8099180525    0.4999021790    0.2586922774
C123       C    0.8676772377    0.4529695627    0.2673176890
C124       C    0.8012910392    0.5468395758    0.2009305613
C125       C    0.8676769117    0.5468378160    0.2673160102
C126       C    0.8012913652    0.4529713225    0.2009322401
O127       O    0.0710237169    0.7465272001    0.3395736892
O128       O   -0.0014248174    0.6952902714    0.2882042260
O129       O   -0.0014850724    0.7465658154    0.3394537335
O130       O    0.0710839746    0.6952479229    0.2883204417
O131       O    0.0709910229    0.6537192246    0.3298849613
O132       O   -0.0015727400    0.7050371811    0.3810181930
O133       O   -0.0015177691    0.6537615731    0.3297687456
O134       O    0.0709307652    0.7049985018    0.3811382088
Cu135     Cu    0.0348056406    0.7246973063    0.3100947724
Cu136     Cu    0.0347003072    0.6755914670    0.3592476624
C137       C    0.0816591067    0.7333173518    0.3679310855
C138       C   -0.0121531590    0.6669714214    0.3014113493
C139       C   -0.0122249754    0.7333702480    0.3677742125
C140       C    0.0817309232    0.6669185252    0.3015682223
O141       O    0.2810373234    0.8044981824    0.5709174923
O142       O    0.2300313537    0.7531454729    0.4982943112
O143       O    0.2812554236    0.8044462007    0.4984089466
O144       O    0.2298095240    0.7531937109    0.5708028469
O145       O    0.1882253516    0.7947026624    0.5706479739
O146       O    0.2396713022    0.8459550873    0.4982593578
O147       O    0.1884471812    0.7946544244    0.4981394382
O148       O    0.2394531510    0.8460071340    0.5707626193
Cu149     Cu    0.2593279782    0.7750327144    0.5346177393
Cu150     Cu    0.2101565264    0.8241198925    0.5344391912
C151       C    0.2677656840    0.8328253245    0.5815476729
C152       C    0.2017188207    0.7663272824    0.4875092576
C153       C    0.2680509787    0.8327564675    0.4876639118
C154       C    0.2014335260    0.7663961394    0.5813930187
O155       O    0.3277257476    1.0361717760    0.6896943492
O156       O    0.3789938730    0.9636787926    0.7409615087
O157       O    0.3277260397    0.9636752150    0.6896968481
O158       O    0.3789973221    1.0361753522    0.7409627422
O159       O    0.3374475158    1.0361756267    0.7825144040
O160       O    0.2861763022    0.9636807725    0.7312484429
O161       O    0.3374440666    0.9636790671    0.7825131705
O162       O    0.2861759412    1.0361720505    0.7312460110
Cu163     Cu    0.3571526494    0.9999229668    0.7115372639
Cu164     Cu    0.3080171648    0.9999278763    0.7606702558
C165       C    0.2993906492    1.0468603345    0.7029112224
C166       C    0.3657791650    0.9529905086    0.7692962973
C167       C    0.2993925813    0.9529920812    0.7029115597
C168       C    0.3657772329    1.0468587619    0.7692959600
O169       O    0.7817558859    0.9636836799    0.3381894068
O170       O    0.7304874577    1.0361767406    0.2869226593
O171       O    0.7817517690    1.0361802408    0.3381908418
O172       O    0.7304878422    0.9636801810    0.2869174830
O173       O    0.6889358806    0.9636782063    0.3284669895
O174       O    0.7401998746    1.0361729830    0.3797402793
O175       O    0.6889354961    1.0361747658    0.3284721658
O176       O    0.7402039243    0.9636817051    0.3797389133
Cu177     Cu    0.7599123641    0.9999326829    0.3087632213
Cu178     Cu    0.7107790179    0.9999257628    0.3578983513
C179       C    0.7685390499    0.9529942599    0.3665241521
C180       C    0.7021523322    1.0468641858    0.3001374205
C181       C    0.7685366177    1.0468625131    0.3665244563
C182       C    0.7021547643    0.9529959326    0.3001371163
O183       O    0.5704396170    0.8464536142    0.2388030085
O184       O    0.4977153353    0.7953241089    0.1877168925
O185       O    0.4979311580    0.8465149844    0.2390505755
O186       O    0.5702237768    0.7952590117    0.1874655794
O187       O    0.5703281748    0.7536617761    0.2289614525
O188       O    0.4980408397    0.8049178112    0.2805463618
O189       O    0.4978197333    0.7537268733    0.2292127655
O190       O    0.5705440150    0.8048563786    0.2802988816
Cu191     Cu    0.5340656514    0.8246836892    0.2094720394
Cu192     Cu    0.5341936989    0.7754967984    0.2585437346
C193       C    0.5812143441    0.8331936567    0.2670843048
C194       C    0.4870450061    0.7669868308    0.2009314693
C195       C    0.4873306827    0.8332760184    0.2674033034
C196       C    0.5809286676    0.7669044692    0.2006124706
O197       O    0.1889376555    0.4644278998    0.8305617412
O198       O    0.2402098651    0.5369209020    0.8818249926
O199       O    0.1889425203    0.5369244607    0.8305598435
O200       O    0.2402087329    0.4644243425    0.8818306314
O201       O    0.2817582360    0.4644214580    0.8402786664
O202       O    0.2304919562    0.5369162931    0.7890079475
O203       O    0.2817593682    0.5369180175    0.8402730276
O204       O    0.2304871586    0.4644250153    0.7890097762
Cu205     Cu    0.2107832924    0.5006769565    0.8599864029
Cu206     Cu    0.2599137312    0.5006689607    0.8108483659
C207       C    0.2021527047    0.4537380335    0.8022262821
C208       C    0.2685443190    0.5476078837    0.8686084867
C209       C    0.2021561054    0.5476062868    0.8022253790
C210       C    0.2685409183    0.4537396305    0.8686093898
O211       O    0.3384727386    0.7471369649   -0.0019566787
O212       O    0.2873837072    0.6958835607    0.0706805227
O213       O    0.3385793341    0.7472126363    0.0705520880
O214       O    0.2872733756    0.6958041522   -0.0018282330
O215       O    0.3288815362    0.6543189484   -0.0018460694
O216       O    0.3801874180    0.7057274937    0.0705289677
O217       O    0.3289918678    0.6543983569    0.0706626863
O218       O    0.3800808992    0.7056517611   -0.0019745151
Cu219     Cu    0.3091300636    0.7252948641    0.0343658455
Cu220     Cu    0.3583345427    0.6762404577    0.0343401621
C221       C    0.3668106082    0.7339512943   -0.0126752836
C222       C    0.3006539981    0.6675840275    0.0813812912
C223       C    0.3669470697    0.7340521690    0.0812087728
C224       C    0.3005175366    0.6674831529   -0.0125027652
O225       O    0.2308546718    0.4637460745    0.2819975432
O226       O    0.2819960795    0.5362555963    0.2306249667
O227       O    0.2308420458    0.5362426341    0.2820056209
O228       O    0.2820124386    0.4637590394    0.2306131481
O229       O    0.2403706036    0.4637574472    0.1891557020
O230       O    0.1892002807    0.5362357589    0.2405482408
O231       O    0.2403542446    0.5362540042    0.1891675205
O232       O    0.1892128368    0.4637444824    0.2405400971
Cu233     Cu    0.2602266100    0.5000032735    0.2600933199
Cu234     Cu    0.2109823064    0.4999968052    0.2110717438
C235       C    0.2024922426    0.4530544186    0.2688433233
C236       C    0.2687166737    0.5469456601    0.2023217404
C237       C    0.2024774548    0.5469226698    0.2688566770
C238       C    0.2687314616    0.4530774089    0.2023083867
O239       O    0.3800867869    0.2945827864   -0.0019434972
O240       O    0.3290297069    0.3458111579    0.0707340723
O241       O    0.3801577102    0.2944148003    0.0705651585
O242       O    0.3289550611    0.3459828947   -0.0017745694
O243       O    0.2872929684    0.3045519170   -0.0018278279
O244       O    0.3384956794    0.2529839034    0.0705066161
O245       O    0.2873676141    0.3043801802    0.0706808137
O246       O    0.3384246942    0.2531518087   -0.0019967557
Cu247     Cu    0.3583589948    0.3239789651    0.0344024445
Cu248     Cu    0.3090954062    0.2749840015    0.0343348721
C249       C    0.3667837208    0.2663129636   -0.0126857660
C250       C    0.3006706802    0.3326500030    0.0814230825
C251       C    0.3668784545    0.2660970016    0.0811981479
C252       C    0.3005759465    0.3328659650   -0.0124608314
O253       O    0.4978369813    0.2461966604    0.2292483173
O254       O    0.5705501523    0.1950235927    0.2803064928
O255       O    0.5703454223    0.2462320848    0.2289905484
O256       O    0.4980417279    0.1949844400    0.2805680066
O257       O    0.4979165944    0.1534014299    0.2390577648
O258       O    0.5702150051    0.2046491391    0.1874803942
O259       O    0.5704250188    0.1534405827    0.2387962510
O260       O    0.4977118478    0.2046136503    0.1877380755
Cu261     Cu    0.5342072836    0.2244036548    0.2585666266
Cu262     Cu    0.5340547166    0.1752335883    0.2094779417
C263       C    0.4870535245    0.2329502390    0.2009639563
C264       C    0.5812084756    0.1666870041    0.2670806121
C265       C    0.5809371639    0.2329990057    0.2006317492
C266       C    0.4873248363    0.1666382374    0.2674128191
O267       O   -0.0013070943    0.2945426571    0.6890455391
O268       O    0.0710626433    0.3459044058    0.7404013809
O269       O    0.0712016546    0.2945995904    0.6891813376
O270       O   -0.0014461141    0.3458512165    0.7402693115
O271       O   -0.0014912699    0.3043455880    0.7818569543
O272       O    0.0711512149    0.2530940265    0.7307689037
O273       O    0.0710174874    0.3043987773    0.7819890237
O274       O   -0.0013522502    0.2530370286    0.7306331818
Cu275     Cu    0.0348841850    0.3240123417    0.7109295147
Cu276     Cu    0.0348262082    0.2749290927    0.7601050481
C277       C   -0.0119999209    0.2662158438    0.7022673284
C278       C    0.0817103140    0.3327255905    0.7687672344
C279       C    0.0818841173    0.2662911119    0.7024402602
C280       C   -0.0121737242    0.3326503225    0.7685943026
O281       O    0.8299145224    0.1534487220    0.4983099072
O282       O    0.8810164519    0.2045672811    0.5710308081
O283       O    0.8296766309    0.1533826678    0.5708183794
O284       O    0.8812580899    0.2046370619    0.4985223530
O285       O    0.8397671514    0.2462393542    0.4984263097
O286       O    0.7881857785    0.1949848979    0.5707170524
O287       O    0.8395255135    0.2461695734    0.5709347648
O288       O    0.7884235839    0.1950510142    0.4982138639
Cu289     Cu    0.8592529483    0.1752127122    0.5346814199
Cu290     Cu    0.8101870875    0.2244055831    0.5345632520
C291       C    0.8016333618    0.1667128218    0.4875398561
C292       C    0.8678066740    0.2329054735    0.5817048159
C293       C    0.8013268907    0.1666243951    0.5814235342
C294       C    0.8681131451    0.2329939002    0.4878211378
O295       O    0.2812435140    0.1954240704    0.4984052229
O296       O    0.2298199568    0.2467149125    0.5707797088
O297       O    0.2810274932    0.1953976733    0.5709137885
O298       O    0.2300322493    0.2467450546    0.4982711352
O299       O    0.1884346971    0.2052494932    0.4981341015
O300       O    0.2394300236    0.1539021825    0.5707714711
O301       O    0.1882224046    0.2052193512    0.5706426751
O302       O    0.2396459617    0.1539285090    0.4982681893
Cu303     Cu    0.2593265827    0.2248573807    0.5346072608
Cu304     Cu    0.2101393358    0.1757860409    0.5344406372
C305       C    0.2680267536    0.1671127452    0.4876657561
C306       C    0.2014391649    0.2335306764    0.5813821420
C307       C    0.2677499508    0.1670801166    0.5815495618
C308       C    0.2017159677    0.2335633050    0.4874983363
O309       O    0.2886897184    1.0361710552    0.3404881822
O310       O    0.3398644969    0.9636790274    0.2891237629
O311       O    0.2886935681    0.9636744943    0.3404875924
O312       O    0.3398643728    1.0361755871    0.2891206043
O313       O    0.3814918736    1.0361764196    0.3305924434
O314       O    0.3303210016    0.9636806098    0.3819593629
O315       O    0.3814919977    0.9636798599    0.3305956020
O316       O    0.3303172192    1.0361718877    0.3819600213
Cu317     Cu    0.3104795198    0.9999226730    0.3110202462
Cu318     Cu    0.3597021963    0.9999282422    0.3600635380
C319       C    0.3019581340    1.0468597518    0.3687984948
C320       C    0.3682235821    0.9529911634    0.3022852894
C321       C    0.3019602174    0.9529914985    0.3687961828
C322       C    0.3682214987    1.0468594166    0.3022876014
O323       O   -0.0014747294    0.2532790587    0.3394541096
O324       O    0.0710823490    0.3046112299    0.2883303039
O325       O    0.0710340392    0.2533353989    0.3395793313
O326       O   -0.0014264144    0.3045586228    0.2882013422
O327       O   -0.0015303939    0.3460870749    0.3297662483
O328       O    0.0709247760    0.2948637801    0.3811441595
O329       O    0.0709783695    0.3461396819    0.3298952101
O330       O   -0.0015787089    0.2948075107    0.3810190157
Cu331     Cu    0.0348155925    0.2751565992    0.3100979941
Cu332     Cu    0.0346880476    0.3242621413    0.3592513256
C333       C   -0.0122245926    0.2664747412    0.3677754792
C334       C    0.0817282327    0.3329439994    0.3015738404
C335       C    0.0816594719    0.2665447931    0.3679360610
C336       C   -0.0121558318    0.3328739475    0.3014132587
C807       C    0.1433402798    0.2314695805    0.3915551434
C808       C    0.1133855206    0.2578291273    0.3995315073
C809       C    0.1117329606    0.2764135958    0.4356935625
C810       C    0.1400351598    0.2686385176    0.4638792538
C811       C    0.1699899190    0.2422789708    0.4559028899
C812       C    0.1716424790    0.2236945023    0.4197408348
H813       H    0.1445636035    0.2177122466    0.3647858299
H814       H    0.0895605020    0.2959254268    0.4415987831
H815       H    0.1388118361    0.2823958515    0.4906485674
H816       H    0.1938149376    0.2041826713    0.4138356141
C797       C    0.2466654686    0.1191179655    0.4345366390
C798       C    0.2769865389    0.1353592182    0.4562781400
C799       C    0.3153135141    0.1232275012    0.4499736264
C800       C    0.3233194190    0.0948545315    0.4219276119
C801       C    0.2929983487    0.0786132788    0.4001861109
C802       C    0.2546713735    0.0907449958    0.4064906244
H803       H    0.2182935519    0.1280985872    0.4392036165
H804       H    0.3377582755    0.1352488348    0.4660664087
H805       H    0.3516913357    0.0858739098    0.4172606343
H806       H    0.2322266121    0.0787236623    0.3903978422
C787       C    0.8887964486    0.2465289127    0.4171648830
C788       C    0.8997601419    0.2418485554    0.4560727445
C789       C    0.9389079695    0.2450539634    0.4667061700
C790       C    0.9670921039    0.2529397287    0.4384317340
C791       C    0.9561284107    0.2576200861    0.3995238725
C792       C    0.9169805831    0.2544146780    0.3888904470
H793       H    0.8598168879    0.2441560782    0.4092933861
H794       H    0.9470244951    0.2415896809    0.4955059673
H795       H    0.9960716646    0.2553125632    0.4463032308
H796       H    0.9088640574    0.2578789605    0.3600906496
C777       C   -0.0326223095    0.2452128446    0.6331088051
C778       C   -0.0439013122    0.2573747002    0.6702679697
C779       C   -0.0833756261    0.2617225143    0.6791452367
C780       C   -0.1115709374    0.2539084728    0.6508633392
C781       C   -0.1002919347    0.2417466171    0.6137041746
C782       C   -0.0608176207    0.2373988031    0.6048269076
H783       H   -0.0034010641    0.2419943329    0.6265373217
H784       H   -0.0917255531    0.2707248142    0.7066505992
H785       H   -0.1407921828    0.2571269845    0.6574348226
H786       H   -0.0524676938    0.2283965032    0.5773215451
C767       C    0.1397179566    0.2685908611    0.6058130599
C768       C    0.1697403650    0.2422167713    0.6134794657
C769       C    0.1716840496    0.2235368043    0.6495776069
C770       C    0.1436053257    0.2312309272    0.6780093423
C771       C    0.1135829173    0.2576050169    0.6703429364
C772       C    0.1116392327    0.2762849839    0.6342447952
H773       H    0.1382791252    0.2824188885    0.5790910593
H774       H    0.1939065911    0.2040142056    0.6552533957
H775       H    0.1450441571    0.2174028997    0.7047313429
H776       H    0.0894166912    0.2958075826    0.6285690065
C757       C    0.3882405240    0.1162170659    0.2830038262
C758       C    0.3996749096    0.0784912125    0.2930776928
C759       C    0.4392075531    0.0690229736    0.2949240768
C760       C    0.4673058110    0.0972805881    0.2866965943
C761       C    0.4558714254    0.1350064415    0.2766227277
C762       C    0.4163387819    0.1444746804    0.2747763437
H763       H    0.3589760997    0.1232260220    0.2816370224
H764       H    0.4476724957    0.0410981314    0.3023807755
H765       H    0.4965702353    0.0902716321    0.2880633981
H766       H    0.4078738393    0.1723995226    0.2673196450
C747       C    0.4313723335    0.2117612199    0.1555729402
C748       C    0.4552543385    0.2417211103    0.1692730638
C749       C    0.4508479945    0.2794835106    0.1547811757
C750       C    0.4225596455    0.2872860206    0.1265891640
C751       C    0.3986776405    0.2573261303    0.1128890404
C752       C    0.4030839845    0.2195637300    0.1273809285
H753       H    0.4346341726    0.1838072353    0.1663007015
H754       H    0.4685252303    0.3016609100    0.1649214999
H755       H    0.4192978065    0.3152400053    0.1158614027
H756       H    0.3854067487    0.1973863306    0.1172406043
C737       C    0.3230210744    0.3818137701    0.1337805315
C738       C    0.2921874447    0.3646361972    0.1135308971
C739       C    0.2538674412    0.3756861330    0.1216161002
C740       C    0.2463810674    0.4039136417    0.1499509377
C741       C    0.2772146971    0.4210912146    0.1702005721
C742       C    0.3155347006    0.4100412788    0.1621153690
H743       H    0.3513878302    0.3736339475    0.1277953812
H744       H    0.2310432853    0.3629717043    0.1066276487
H745       H    0.2180143116    0.4120934643    0.1559360881
H746       H    0.3383588565    0.4227557076    0.1771038206
C727       C    0.1805211984    0.3870456154    0.2972517880
C728       C    0.1704421882    0.4211778232    0.2775298091
C729       C    0.1320312274    0.4271314169    0.2654866029
C730       C    0.1036992769    0.3989528026    0.2731653757
C731       C    0.1137782872    0.3648205947    0.2928873546
C732       C    0.1521892479    0.3588670011    0.3049305608
H733       H    0.2089552862    0.3826384097    0.3061668886
H734       H    0.1245695643    0.4523961442    0.2508880831
H735       H    0.0752651891    0.4033600083    0.2642502750
H736       H    0.1596509111    0.3336022737    0.3195290806
C717       C    0.3195927821    0.6281587241    0.1426793753
C718       C    0.2921633042    0.6355117276    0.1135339011
C719       C    0.2572558581    0.6146178473    0.1127060417
C720       C    0.2497778898    0.5863709635    0.1410236564
C721       C    0.2772073676    0.5790179601    0.1701691306
C722       C    0.3121148138    0.5999118404    0.1709969900
H723       H    0.3454333591    0.6436256225    0.1432922063
H724       H    0.2369515513    0.6200598531    0.0911326390
H725       H    0.2239373127    0.5709040651    0.1404108253
H726       H    0.3324191205    0.5944698346    0.1925703926
C707       C    0.3150934750    0.5855979461    0.9125604225
C708       C    0.2769597187    0.5791592376    0.8999001867
C709       C    0.2463971715    0.6011068099    0.9153926250
C710       C    0.2539683806    0.6294930906    0.9435452990
C711       C    0.2921021369    0.6359317990    0.9562055348
C712       C    0.3226646841    0.6139842268    0.9407130965
H713       H    0.3377176983    0.5693510419    0.9010919941
H714       H    0.2181697333    0.5963415954    0.9060220538
H715       H    0.2313441573    0.6457399947    0.9550137274
H716       H    0.3508921223    0.6187494413    0.9500836677
C697       C    0.2670359036    0.4283820150    0.9389334701
C698       C    0.2770050337    0.4218030690    0.9000323485
C699       C    0.2945275625    0.3867238517    0.8891731576
C700       C    0.3020809612    0.3582235804    0.9172150883
C701       C    0.2921118312    0.3648025265    0.9561162099
C702       C    0.2745893024    0.3998817438    0.9669754009
H703       H    0.2540646810    0.4543497473    0.9469720920
H704       H    0.3019072316    0.3818530290    0.8603783419
H705       H    0.3150521838    0.3322558481    0.9091764664
H706       H    0.2672096332    0.4047525664    0.9957702165
C687       C    0.1567917907    0.4160494754    0.7552595772
C688       C    0.1700998718    0.4215334950    0.7933219648
C689       C    0.1552395905    0.3987158317    0.8235591458
C690       C    0.1270712280    0.3704141487    0.8157339393
C691       C    0.1137631469    0.3649301291    0.7776715517
C692       C    0.1286234282    0.3877477924    0.7474343706
H693       H    0.1677922587    0.4329404729    0.7328762094
H694       H    0.1650897145    0.4027743614    0.8517337468
H695       H    0.1160707600    0.3535231511    0.8381173071
H696       H    0.1187733041    0.3836892627    0.7192597697
C677       C    0.4199819407    0.7785055102    0.1697624881
C678       C    0.4552865433    0.7582776534    0.1692722341
C679       C    0.4623006406    0.7302916431    0.1405798670
C680       C    0.4340101352    0.7225334896    0.1123777540
C681       C    0.3987055326    0.7427613464    0.1128680079
C682       C    0.3916914353    0.7707473567    0.1415603750
H683       H    0.4147896868    0.7992224269    0.1910022923
H684       H    0.4884332039    0.7153181697    0.1402160748
H685       H    0.4392023890    0.7018165729    0.0911379498
H686       H    0.3655588719    0.7857208300    0.1419241673
C667       C    0.4667258254    0.9039407722    0.2801440195
C668       C    0.4558828553    0.8648843877    0.2766131882
C669       C    0.4169341622    0.8540772064    0.2813134651
C670       C    0.3888284394    0.8823264096    0.2895445733
C671       C    0.3996714095    0.9213827941    0.2930754046
C672       C    0.4386201025    0.9321899754    0.2883751277
H673       H    0.4955579748    0.9119408934    0.2766645937
H674       H    0.4089070017    0.8251674674    0.2787001051
H675       H    0.3599962900    0.8743262884    0.2930239991
H676       H    0.4466472631    0.9610997144    0.2909884877
C657       C    0.6326316005    0.9252766648    0.3068045025
C658       C    0.6700624968    0.9212056785    0.2913663541
C659       C    0.6791154506    0.8890238083    0.2681725621
C660       C    0.6507375079    0.8609129245    0.2604169186
C661       C    0.6133066116    0.8649839108    0.2758550670
C662       C    0.6042536578    0.8971657809    0.2990488589
H663       H    0.6259300633    0.9490996077    0.3239739329
H664       H    0.7068219535    0.8860094603    0.2567445655
H665       H    0.6574390451    0.8370899816    0.2432474882
H666       H    0.5765471549    0.9001801290    0.3104768555
C647       C    0.6435253380    1.0729709798    0.2610395623
C648       C    0.6700563149    1.0786627026    0.2913648220
C649       C    0.6682113807    1.1124673177    0.3139342759
C650       C    0.6398354697    1.1405802101    0.3061784702
C651       C    0.6133044929    1.1348884874    0.2758532106
C652       C    0.6151494270    1.1010838722    0.2532837566
H653       H    0.6448910685    1.0479467842    0.2443323042
H654       H    0.6878494571    1.1166813805    0.3363816396
H655       H    0.6384697393    1.1656044057    0.3228857283
H656       H    0.5955113507    1.0968698095    0.2308363930
C637       C    0.8127070902    1.0780836425    0.4187405338
C638       C    0.7773232319    1.0786807012    0.3986519559
C639       C    0.7497011314    1.1073847261    0.4069435783
C640       C    0.7574628893    1.1354916925    0.4353237786
C641       C    0.7928467476    1.1348946338    0.4554123565
C642       C    0.8204688481    1.1061906088    0.4471207341
H643       H    0.8331546192    1.0568352084    0.4126025795
H644       H    0.7235092511    1.1078275753    0.3920743468
H645       H    0.7370153603    1.1567401266    0.4414617329
H646       H    0.8466607284    1.1057477597    0.4619899656
C627       C    0.2586031469    1.1032114157    0.6741437909
C628       C    0.2909809366    1.0788132896    0.6706547699
C629       C    0.3159480897    1.0825720994    0.6387413711
C630       C    0.3085374531    1.1107290354    0.6103169933
C631       C    0.2761596634    1.1351271615    0.6138060143
C632       C    0.2511925103    1.1313683517    0.6457194131
H633       H    0.2401209686    1.1004289201    0.6977679952
H634       H    0.3399148048    1.0645128121    0.6361578002
H635       H    0.3270196314    1.1135115310    0.5866927890
H636       H    0.2272257952    1.1494276389    0.6483029840
C617       C    0.2535355421    0.8985336243    0.6153667579
C618       C    0.2761701094    0.8647580348    0.6137985045
C619       C    0.3062137000    0.8591331133    0.6406613629
C620       C    0.3136227232    0.8872837814    0.6690924747
C621       C    0.2909881558    0.9210593709    0.6706607280
C622       C    0.2609445653    0.9266842924    0.6437978696
H623       H    0.2312954816    0.9026975272    0.5954812653
H624       H    0.3229686771    0.8341323640    0.6395013975
H625       H    0.3358627837    0.8831198785    0.6889779672
H626       H    0.2441895882    0.9516850417    0.6449578351
C607       C    0.3102743137    0.8613502115    0.4330591479
C608       C    0.2770041658    0.8645025866    0.4562788068
C609       C    0.2517354501    0.8960263581    0.4514497061
C610       C    0.2597368823    0.9243977546    0.4234009467
C611       C    0.2930070303    0.9212453795    0.4001812878
C612       C    0.3182757460    0.8897216080    0.4050103885
H613       H    0.3289797266    0.8380144326    0.4366339367
H614       H    0.2271082052    0.8983607326    0.4686366623
H615       H    0.2410314694    0.9477335335    0.4198261579
H616       H    0.3429029909    0.8873872335    0.3878234323
C597       C    0.1368960233    0.6207333627    0.3231327450
C598       C    0.1137607691    0.6350878076    0.2928909895
C599       C    0.1189689348    0.6212750424    0.2549706942
C600       C    0.1473123547    0.5931078324    0.2472921543
C601       C    0.1704476089    0.5787533875    0.2775339097
C602       C    0.1652394432    0.5925661526    0.3154542051
H603       H    0.1330406279    0.6309583966    0.3512036130
H604       H    0.1018444668    0.6318997144    0.2325846542
H605       H    0.1511677501    0.5828827985    0.2192212863
H606       H    0.1823639113    0.5819414806    0.3378402451
C587       C    0.1152542033    0.7787958265    0.4168869107
C588       C    0.1133890591    0.7420413733    0.3995337737
C589       C    0.1398238195    0.7130678640    0.4103670346
C590       C    0.1681237241    0.7208488078    0.4385534325
C591       C    0.1699888683    0.7576032609    0.4559065694
C592       C    0.1435541079    0.7865767703    0.4450733085
H593       H    0.0956856144    0.8002437490    0.4088674838
H594       H    0.1384440830    0.6858614315    0.3975226472
H595       H    0.1876923130    0.6994008853    0.4465728594
H596       H    0.1449338444    0.8137832028    0.4579176960
C577       C    0.9010102492    0.6128463143    0.2542818647
C578       C    0.8995477216    0.5786989923    0.2763585891
C579       C    0.9262993488    0.5727572967    0.3064404042
C580       C    0.9545135035    0.6009629231    0.3144454948
C581       C    0.9559760311    0.6351102451    0.2923687704
C582       C    0.9292244040    0.6410519407    0.2622869553
H583       H    0.8812070966    0.6172447123    0.2320135081
H584       H    0.9252176376    0.5474813823    0.3227824692
H585       H    0.9743166561    0.5965645251    0.3367138514
H586       H    0.9303061151    0.6663278552    0.2459448903
C567       C    0.9182144944    0.4017795635    0.2458131301
C568       C    0.8995426320    0.4211230795    0.2763590181
C569       C    0.9090888405    0.4122652711    0.3149113618
C570       C    0.9373069114    0.3840639468    0.3229178175
C571       C    0.9559787739    0.3647204307    0.2923719295
C572       C    0.9464325653    0.3735782391    0.2538195858
H573       H    0.9111478206    0.4083366424    0.2172743822
H574       H    0.8952682965    0.4265829926    0.3375225396
H575       H    0.9443735853    0.3775068678    0.3514565654
H576       H    0.9602531094    0.3592605176    0.2312084080
C557       C    0.6220481038    0.2803639340    0.1597901437
C558       C    0.6126581078    0.2418536272    0.1689684128
C559       C    0.6315228950    0.2112303937    0.1499432112
C560       C    0.6597776783    0.2191174671    0.1217397407
C561       C    0.6691676743    0.2576277739    0.1125614716
C562       C    0.6503028870    0.2882510074    0.1315866731
H563       H    0.6080832613    0.3030330809    0.1738737345
H564       H    0.6245730504    0.1827242323    0.1567363313
H565       H    0.6737425208    0.1964483202    0.1076561499
H566       H    0.6572527316    0.3167571688    0.1247935531
C547       C    0.7669344561    0.3577293008    0.1516617527
C548       C    0.7762742653    0.3647156848    0.1126756467
C549       C    0.7936107997    0.3999130161    0.1019007934
C550       C    0.8016075250    0.4281239635    0.1301120462
C551       C    0.7922677158    0.4211375795    0.1690981523
C552       C    0.7749311814    0.3859402481    0.1798730055
H553       H    0.7541009177    0.3316741334    0.1596379428
H554       H    0.8005246419    0.4050854267    0.0730430752
H555       H    0.8144410634    0.4541791308    0.1221358561
H556       H    0.7680173392    0.3807678376    0.2087307237
C537       C    0.4112625343    0.2872585951    0.9305950316
C538       C    0.3987604763    0.2576209189    0.9555144603
C539       C    0.4145914789    0.2202816411    0.9522576436
C540       C    0.4429245395    0.2125800396    0.9240813981
C541       C    0.4554265974    0.2422177158    0.8991619694
C542       C    0.4395955948    0.2795569936    0.9024187861
H543       H    0.3995434804    0.3148993592    0.9330059220
H544       H    0.4053380011    0.1983427568    0.9707028131
H545       H    0.4546435934    0.1849392755    0.9216705077
H546       H    0.4488490727    0.3014958779    0.8839736166
C527       C    0.4343056380    0.1183873507    0.8234284026
C528       C    0.4549038188    0.1351338461    0.7925875062
C529       C    0.4470778367    0.1237277385    0.7543184928
C530       C    0.4186536736    0.0955751355    0.7468903759
C531       C    0.3980554927    0.0788286402    0.7777312723
C532       C    0.4058814749    0.0902347477    0.8160002856
H533       H    0.4400988975    0.1268308329    0.8517574124
H534       H    0.4623242893    0.1361230738    0.7314889599
H535       H    0.4128604141    0.0871316533    0.7185613660
H536       H    0.3906350223    0.0778394124    0.8388298186
C517       C    0.6016758326    0.2486692116    0.9373138755
C518       C    0.6128398697    0.2422659528    0.8987090997
C519       C    0.6521840722    0.2436450565    0.8884100445
C520       C    0.6803642374    0.2514274190    0.9167157653
C521       C    0.6692002003    0.2578306778    0.9553205411
C522       C    0.6298559978    0.2564515741    0.9656195963
H523       H    0.5725509035    0.2476483167    0.9449378514
H524       H    0.6604488979    0.2389054308    0.8598346007
H525       H    0.7094891665    0.2524483139    0.9090917894
H526       H    0.6215911721    0.2611911998    0.9941950401
C507       C    0.9619610166    0.7724229381    0.4261848240
C508       C    0.9561315518    0.7422403806    0.3995263396
C509       C    0.9221230179    0.7199568321    0.4011436829
C510       C    0.8939439488    0.7278558411    0.4294195105
C511       C    0.8997734136    0.7580383987    0.4560779949
C512       C    0.9337819475    0.7803219472    0.4544606516
H513       H    0.9871361650    0.7889185520    0.4249875699
H514       H    0.9178069925    0.6976151050    0.3814112187
H515       H    0.8687688004    0.7113602273    0.4306167646
H516       H    0.9380979729    0.8026636742    0.4741931158
C497       C    0.8233298964    0.8808552799    0.4336319199
C498       C    0.7928440389    0.8649756335    0.4554115452
C499       C    0.7545974297    0.8772009454    0.4488088091
C500       C    0.7468366780    0.9053059036    0.4204264476
C501       C    0.7773225355    0.9211855500    0.3986468223
C502       C    0.8155691448    0.9089602381    0.4052495584
H503       H    0.8516423215    0.8718053737    0.4385196597
H504       H    0.7320306958    0.8654472745    0.4649298013
H505       H    0.7185242530    0.9143558098    0.4155387078
H506       H    0.8381358786    0.9207139090    0.3891285662
C487       C    0.1164901483    0.6196165696    0.8149120901
C488       C    0.1136751564    0.6358016563    0.7776833274
C489       C    0.1391383399    0.6237998377    0.7482981112
C490       C    0.1674165153    0.5956129324    0.7561416577
C491       C    0.1702315071    0.5794278458    0.7933704204
C492       C    0.1447683236    0.5914296643    0.8227556366
H493       H    0.0976407787    0.6285010327    0.8366647827
H494       H    0.1370554988    0.6357796015    0.7207405833
H495       H    0.1862658848    0.5867284693    0.7343889651
H496       H    0.1468511648    0.5794499005    0.8503131645
C477       C   -0.0825950634    0.7487544382    0.6812334114
C478       C   -0.0438826069    0.7427121371    0.6702423347
C479       C   -0.0333753416    0.7444395035    0.6309670047
C480       C   -0.0615805329    0.7522091709    0.6026827514
C481       C   -0.1002929895    0.7582514720    0.6136738281
C482       C   -0.1108002547    0.7565241056    0.6529491581
H483       H   -0.0903731689    0.7474757384    0.7103073570
H484       H   -0.0047201863    0.7399670684    0.6228302059
H485       H   -0.0538024275    0.7534878707    0.5736088058
H486       H   -0.1394554100    0.7609965407    0.6610859569
C467       C    0.1529648650    0.7436343678    0.6804407059
C468       C    0.1135590932    0.7425658464    0.6703420387
C469       C    0.1022470187    0.7491159349    0.6318061257
C470       C    0.1303407160    0.7567345450    0.6033688799
C471       C    0.1697464878    0.7578030665    0.6134675471
C472       C    0.1810585623    0.7512529779    0.6520034601
H473       H    0.1613387383    0.7387856010    0.7089672908
H474       H    0.0730786485    0.7483252264    0.6243299086
H475       H    0.1219668427    0.7615833119    0.5748422950
H476       H    0.2102269325    0.7520436864    0.6594796772
C457       C    0.6299768426    1.0676944512    0.7828799788
C458       C    0.6685124870    1.0786145750    0.7756906897
C459       C    0.6790107533    1.1179147646    0.7765123129
C460       C    0.6509733752    1.1462948304    0.7845232253
C461       C    0.6124377309    1.1353747066    0.7917125145
C462       C    0.6019394646    1.0960745170    0.7908908912
H463       H    0.6222053987    1.0386021031    0.7822717642
H464       H    0.7075350325    1.1259990451    0.7711908527
H465       H    0.6587448191    1.1753871785    0.7851314399
H466       H    0.5734151853    1.0879902365    0.7962123515
C447       C    0.7758389029    0.9313780317    0.6295877859
C448       C    0.7756184730    0.9213929418    0.6690361413
C449       C    0.7836444585    0.8831547979    0.6803871111
C450       C    0.7918908739    0.8549017438    0.6522897256
C451       C    0.7921113037    0.8648868337    0.6128413702
C452       C    0.7840853182    0.9031249776    0.6014904003
H453       H    0.7698975889    0.9596841902    0.6211851199
H454       H    0.7834815510    0.8757626597    0.7095870028
H455       H    0.7978321878    0.8265955853    0.6606923916
H456       H    0.7842482257    0.9105171158    0.5722905087
C437       C    0.8140351700    1.0903429949    0.6627683339
C438       C    0.7756169988    1.0784801744    0.6690324702
C439       C    0.7454421097    1.0948787594    0.6472068277
C440       C    0.7536853918    1.1231401650    0.6191170488
C441       C    0.7921035631    1.1350029855    0.6128529124
C442       C    0.8222784522    1.1186044005    0.6346785550
H443       H    0.8363724256    1.0782037827    0.6789249784
H444       H    0.7170041609    1.0860984608    0.6518428284
H445       H    0.7313481363    1.1352793773    0.6029604043
H446       H    0.8507164010    1.1273846991    0.6300425543
C427       C    0.4160546032    0.7577660672    0.8889237963
C428       C    0.4554409580    0.7578018862    0.8991538303
C429       C    0.4664889453    0.7502117978    0.9375753244
C430       C    0.4381505777    0.7425858904    0.9657667846
C431       C    0.3987642229    0.7425500714    0.9555367507
C432       C    0.3877162356    0.7501401598    0.9171152565
H433       H    0.4078762230    0.7633847041    0.8604819111
H434       H    0.4956429348    0.7502380706    0.9451487751
H435       H    0.4463289579    0.7369672535    0.9942086699
H436       H    0.3585622461    0.7501138869    0.9095418058
C417       C    0.6012203550    0.9003014185    0.7759791766
C418       C    0.6124379837    0.8644860396    0.7916933585
C419       C    0.6516956950    0.8570493525    0.7994014597
C420       C    0.6797357776    0.8854280443    0.7913953790
C421       C    0.6685181489    0.9212434232    0.7756811971
C422       C    0.6292604376    0.9286801103    0.7679730959
H423       H    0.5721594518    0.9058064985    0.7702731797
H424       H    0.6600001863    0.8305387010    0.8110332852
H425       H    0.7087966808    0.8799229643    0.7971013759
H426       H    0.6209559463    0.9551907618    0.7563412704
C407       C    0.4250315548    0.8710750192    0.8194655082
C408       C    0.4549137043    0.8647495808    0.7925762837
C409       C    0.4563646536    0.8865703078    0.7582614535
C410       C    0.4279334534    0.9147164732    0.7508358476
C411       C    0.3980513039    0.9210419116    0.7777250721
C412       C    0.3966003546    0.8992211846    0.8120399023
H413       H    0.4239574755    0.8549220135    0.8448673955
H414       H    0.4784833604    0.8818889314    0.7383570591
H415       H    0.4290075327    0.9308694789    0.7254339603
H416       H    0.3744816478    0.9039025611    0.8319442967
C397       C    0.7809357330    0.6160992790    0.1803832141
C398       C    0.7922667504    0.5786882477    0.1690910221
C399       C    0.7956029725    0.5694925826    0.1295915547
C400       C    0.7876081771    0.5977079490    0.1013842791
C401       C    0.7762771597    0.6351189803    0.1126764711
C402       C    0.7729409377    0.6443146454    0.1521759386
H403       H    0.7784660622    0.6229064596    0.2096230797
H404       H    0.8039902568    0.5418007792    0.1212318642
H405       H    0.7900778480    0.5909007684    0.0721444136
H406       H    0.7645536533    0.6720064488    0.1605356290
C387       C    0.6769171449    0.7690361170    0.1421785366
C388       C    0.6691662570    0.7422359889    0.1125578844
C389       C    0.6331586875    0.7233355484    0.1111353099
C390       C    0.6049020060    0.7312352360    0.1393333876
C391       C    0.6126528939    0.7580353641    0.1689540397
C392       C    0.6486604633    0.7769358046    0.1703766142
H393       H    0.7035720989    0.7830273521    0.1432316112
H394       H    0.6274203683    0.7034975907    0.0892101634
H395       H    0.5782470520    0.7172440008    0.1382803129
H396       H    0.6543987826    0.7967737623    0.1923017607
C377       C    0.6445878031    0.7123292607   -0.0576087694
C378       C    0.6692004832    0.7420410936   -0.0446833334
C379       C    0.6656324548    0.7795406279   -0.0600615864
C380       C    0.6374517462    0.7873283293   -0.0883652754
C381       C    0.6128390661    0.7576164965   -0.1012907115
C382       C    0.6164070945    0.7201169622   -0.0859124585
H383       H    0.6472290709    0.6845698652   -0.0462248679
H384       H    0.6838505602    0.8015344077   -0.0504947112
H385       H    0.6348104784    0.8150877249   -0.0997491770
H386       H    0.5981889891    0.6981231823   -0.0954793337
C367       C    0.8916130870    0.6085944375    0.7648226431
C368       C    0.8988811230    0.5790429660    0.7918325550
C369       C    0.9345124876    0.5777129042    0.8114418094
C370       C    0.9628758162    0.6059343140    0.8040411518
C371       C    0.9556077803    0.6354857855    0.7770312398
C372       C    0.9199764157    0.6368158473    0.7574219854
H373       H    0.8652366223    0.6095790287    0.7503067015
H374       H    0.9398933895    0.5558389679    0.8314350708
H375       H    0.9892522809    0.6049497228    0.8185570934
H376       H    0.9145955137    0.6586897836    0.7374287240
C357       C    0.7837205708    0.5674976450    0.9367153244
C358       C    0.7912568349    0.5787399351    0.8983389896
C359       C    0.7910804431    0.6181636478    0.8882826935
C360       C    0.7833677871    0.6463450704    0.9166027323
C361       C    0.7758315230    0.6351027804    0.9549790671
C362       C    0.7760079148    0.5956790677    0.9650353631
H363       H    0.7838511466    0.5383138577    0.9441595955
H364       H    0.7966587534    0.6264863986    0.8598763487
H365       H    0.7832372113    0.6755288578    0.9091584612
H366       H    0.7704296044    0.5873563169    0.9934417080
C347       C    0.8137196886    0.3697457797    0.9409565345
C348       C    0.7758329066    0.3648069387    0.9549627875
C349       C    0.7456596177    0.3880603838    0.9406601700
C350       C    0.7533731107    0.4162526700    0.9123512996
C351       C    0.7912598927    0.4211915111    0.8983450467
C352       C    0.8214331817    0.3979380659    0.9126476641
H353       H    0.8360557597    0.3525321904    0.9515441864
H354       H    0.7176150014    0.3844054071    0.9510270961
H355       H    0.7310370396    0.4334662593    0.9017636478
H356       H    0.8494777980    0.4015930426    0.9022807381
C337       C    0.9228312004    0.4244292813    0.7591195336
C338       C    0.8988502499    0.4210655671    0.7918241378
C339       C    0.9032499168    0.3895001076    0.8171191385
C340       C    0.9316305342    0.3612983622    0.8097095351
C341       C    0.9556114847    0.3646620763    0.7770049310
C342       C    0.9512118178    0.3962275359    0.7517099302
H343       H    0.9195743041    0.4477959202    0.7403946630
H344       H    0.8854994417    0.3870092994    0.8413277708
H345       H    0.9348874305    0.3379317233    0.8284344058
H346       H    0.9689622928    0.3987183441    0.7275012980
loop_
_geom_bond_atom_site_label_1
_geom_bond_atom_site_label_2
_geom_bond_distance
_geom_bond_site_symmetry_2
_ccdc_geom_bond_type
O309       C319 1.250       .   A
O309      Cu317 1.951       .   S
O302       C305 1.250       .   A
O302      Cu304 1.951       .   S
O300       C307 1.251       .   A
O300      Cu304 1.951       .   S
O301       C306 1.250       .   A
O301      Cu304 1.951       .   S
C620       H625 1.140       .   S
C512       H516 1.140       .   S
C509       H514 1.140       .   S
C510       H515 1.140       .   S
C507       H513 1.140       .   S
O48         C55 1.251       .   A
O48        Cu52 1.951       .   S
O29         C39 1.250       .   A
O29        Cu37 1.951       .   S
C690       H695 1.140       .   S
C689       H694 1.140       .   S
C692       H696 1.140       .   S
O22        Cu24 1.951       .   S
O22         C25 1.250       .   A
O20        Cu24 1.951       .   S
O20         C27 1.251       .   A
O21        Cu24 1.951       .   S
O21         C26 1.250       .   A
C557       C562 1.540       .   A
C562       H566 1.140       .   S
C561       C562 1.540       .   A
C249       C538 1.738   1_554   S
O246       C249 1.250       .   A
O239       C249 1.250       .   A
C560       C561 1.540       .   A
C561       C110 1.729       .   S
O49        Cu52 1.951       .   S
O50        Cu52 1.951       .   S
Cu51       Cu52 2.630       .   S
O47        Cu52 1.951       .   S
O43        Cu51 1.951       .   S
O44        Cu51 1.951       .   S
O45        Cu51 1.951       .   S
O46        Cu51 1.951       .   S
O239      Cu247 1.951       .   S
C568       C123 1.739       .   S
C568       C569 1.540       .   A
C567       C568 1.540       .   A
C569       H574 1.140       .   S
C569       C570 1.540       .   A
O232      Cu234 1.951       .   S
O232       C235 1.250       .   A
O230      Cu234 1.951       .   S
O230       C237 1.251       .   A
O231      Cu234 1.951       .   S
O231       C236 1.250       .   A
C53        C448 1.722       .   S
C447       C448 1.540       .   A
C448       C449 1.540       .   A
O144      Cu149 1.951       .   S
Cu149     Cu150 2.630       .   S
O141      Cu149 1.951       .   S
O142      Cu149 1.951       .   S
O143      Cu149 1.951       .   S
C809       C810 1.540       .   A
C809       H814 1.140       .   S
C808       C809 1.540       .   A
C807       C808 1.540       .   A
C808       C335 1.726       .   S
C807       C812 1.540       .   A
C807       H813 1.140       .   S
C319       C801 1.724   1_565   S
C800       C801 1.540       .   A
C801       C802 1.540       .   A
C799       C800 1.540       .   A
C800       H805 1.140       .   S
C797       C802 1.540       .   A
C802       H806 1.140       .   S
C759       C760 1.540       .   A
C760       C761 1.540       .   A
C760       H765 1.140       .   S
C462       H466 1.140       .   S
C459       H464 1.140       .   S
C761       C762 1.540       .   A
C761       C266 1.724       .   S
C337       H343 1.140       .   S
C762       H766 1.140       .   S
C757       C762 1.540       .   A
C340       H345 1.140       .   S
C339       H344 1.140       .   S
O59         C69 1.250       .   A
O59        Cu65 1.951       .   S
O58         C68 1.250       .   A
O58        Cu65 1.951       .   S
O50         C53 1.250       .   A
O57         C67 1.250       .   A
O57        Cu65 1.951       .   S
C479       H484 1.140       .   S
C479       C480 1.540       .   A
C478       C479 1.540       .   A
O283      Cu289 1.951       .   S
O282      Cu289 1.951       .   S
O281      Cu289 1.951       .   S
Cu289     Cu290 2.630       .   S
O284      Cu289 1.951       .   S
C767       C768 1.540       .   A
C767       C772 1.540       .   A
C767       H773 1.140       .   S
O162      Cu164 1.951       .   S
O162       C165 1.250       .   A
C480       C481 1.540       .   A
C481        C82 1.740   1_455   S
C481       C482 1.540       .   A
O160       C167 1.251       .   A
O160      Cu164 1.951       .   S
O161       C166 1.250       .   A
O161      Cu164 1.951       .   S
C661       C193 1.742       .   S
C660       C661 1.540       .   A
C661       C662 1.540       .   A
C659       C660 1.540       .   A
C660       H665 1.140       .   S
C747       C748 1.540       .   A
C748       C263 1.731       .   S
C748       C749 1.540       .   A
C768       C769 1.540       .   A
C769       C770 1.540       .   A
C769       H774 1.140       .   S
C747       C752 1.540       .   A
C747       H753 1.140       .   S
O169       C179 1.250       .   A
O169      Cu177 1.951       .   S
C737       C742 1.540       .   A
C742       H746 1.140       .   S
C741       C742 1.540       .   A
C667       C668 1.540       .   A
C668       C669 1.540       .   A
C668       C195 1.723       .   S
C740       H745 1.140       .   S
C739       C740 1.540       .   A
C740       C741 1.540       .   A
C238       C741 1.745       .   S
C482       H486 1.140       .   S
C487       H493 1.140       .   S
C487       C488 1.540       .   A
C487       C492 1.540       .   A
O260       C263 1.250       .   A
O260      Cu262 1.951       .   S
C759       H764 1.140       .   S
O30         C40 1.250       .   A
O35         C40 1.250       .   A
C40        C408 1.748       .   S
O31         C41 1.250       .   A
C41        C428 1.736       .   S
O34         C41 1.251       .   A
O33         C42 1.250       .   A
O32         C42 1.250       .   A
C42        C418 1.723       .   S
C359       C360 1.540       .   A
C358       C359 1.540       .   A
C359       H364 1.140       .   S
C642       H646 1.140       .   S
C639       H644 1.140       .   S
C640       H645 1.140       .   S
C637       H643 1.140       .   S
O75        Cu80 1.951       .   S
O77        Cu80 1.951       .   S
O76        Cu80 1.951       .   S
Cu79       Cu80 2.630       .   S
O78        Cu80 1.951       .   S
C592       H596 1.140       .   S
C591       C592 1.540       .   A
C587       C592 1.540       .   A
C590       C591 1.540       .   A
C152       C591 1.727       .   S
C589       C590 1.540       .   A
C590       H595 1.140       .   S
C597       C602 1.540       .   A
C597       C598 1.540       .   A
C597       H603 1.140       .   S
O211      Cu219 1.951       .   S
O212      Cu219 1.951       .   S
O213      Cu219 1.951       .   S
O214      Cu219 1.951       .   S
Cu219     Cu220 2.630       .   S
C599       C600 1.540       .   A
C598       C599 1.540       .   A
C599       H604 1.140       .   S
C598       C140 1.740       .   S
C610       H615 1.140       .   S
C610       C611 1.540       .   A
C609       C610 1.540       .   A
C357       C358 1.540       .   A
C358        C14 1.739       .   S
C321       C611 1.723       .   S
C611       C612 1.540       .   A
C698       C699 1.540       .   A
C698       C210 1.726       .   S
C697       C698 1.540       .   A
C699       C700 1.540       .   A
C699       H704 1.140       .   S
C348       C349 1.540       .   A
C347       C348 1.540       .   A
C348       C109 1.741   1_556   S
C349       H354 1.140       .   S
C349       C350 1.540       .   A
C690       C691 1.540       .   A
C689       C690 1.540       .   A
C691       C692 1.540       .   A
C691       C278 1.752       .   S
C687       C692 1.540       .   A
C341       C342 1.540       .   A
C340       C341 1.540       .   A
C341       C280 1.748   1_655   S
C657       C662 1.540       .   A
C662       H666 1.140       .   S
C697       C702 1.540       .   A
C697       H703 1.140       .   S
C492       H496 1.140       .   S
C490       H495 1.140       .   S
C750       C751 1.540       .   A
C751       C752 1.540       .   A
C251       C751 1.731       .   S
C687       H693 1.140       .   S
C750       H755 1.140       .   S
C749       C750 1.540       .   A
C527       C532 1.540       .   A
C527       H533 1.140       .   S
C527       C528 1.540       .   A
C752       H756 1.140       .   S
C517       C522 1.540       .   A
C522       H526 1.140       .   S
C521       C522 1.540       .   A
C519       C520 1.540       .   A
C520       H525 1.140       .   S
C520       C521 1.540       .   A
C521       C112 1.724   1_556   S
C787       H793 1.140       .   S
C789       H794 1.140       .   S
C790       H795 1.140       .   S
C792       H796 1.140       .   S
O270       C280 1.250       .   A
O271       C280 1.250       .   A
C449       C450 1.540       .   A
C449       H454 1.140       .   S
C757       C758 1.540       .   A
C757       H763 1.140       .   S
C447       C452 1.540       .   A
C447       H453 1.140       .   S
O7         Cu10 1.951       .   S
O6         Cu10 1.951       .   S
O5         Cu10 1.951       .   S
Cu9        Cu10 2.630       .   S
O8         Cu10 1.951       .   S
C293       C441 1.723   1_545   S
C440       C441 1.540       .   A
C441       C442 1.540       .   A
O102       C112 1.250       .   A
O103       C112 1.250       .   A
O101       C111 1.250       .   A
C111       C548 1.738       .   S
O104       C111 1.251       .   A
O100       C110 1.250       .   A
O105       C110 1.250       .   A
O103      Cu108 1.951       .   S
O104      Cu108 1.951       .   S
O105      Cu108 1.951       .   S
O106      Cu108 1.951       .   S
Cu107     Cu108 2.630       .   S
O88        Cu93 1.951       .   S
O88         C98 1.250       .   A
O89         C98 1.250       .   A
O89        Cu94 1.951       .   S
O85        Cu93 1.951       .   S
O85         C95 1.250       .   A
O86        Cu93 1.951       .   S
O86         C96 1.250       .   A
O87        Cu93 1.951       .   S
O87         C97 1.250       .   A
O100      Cu107 1.951       .   S
O101      Cu107 1.951       .   S
O102      Cu107 1.951       .   S
O99       Cu107 1.951       .   S
O298      Cu303 1.951       .   S
O298       C308 1.250       .   A
O299       C308 1.250       .   A
O299      Cu304 1.951       .   S
C419       H424 1.140       .   S
C420       H425 1.140       .   S
C417       H423 1.140       .   S
C477       H483 1.140       .   S
C382       H386 1.140       .   S
C380       H385 1.140       .   S
C379       H384 1.140       .   S
C377       H383 1.140       .   S
O295      Cu303 1.951       .   S
O295       C305 1.250       .   A
O296       C306 1.250       .   A
O296      Cu303 1.951       .   S
O297      Cu303 1.951       .   S
O297       C307 1.250       .   A
O17        Cu23 1.951       .   S
O17         C27 1.250       .   A
O16         C26 1.250       .   A
O16        Cu23 1.951       .   S
O15        Cu23 1.951       .   S
O15         C25 1.250       .   A
C540       H545 1.140       .   S
C539       H544 1.140       .   S
C542       H546 1.140       .   S
C618       C619 1.540       .   A
C618       C151 1.747       .   S
C617       C618 1.540       .   A
O19        Cu24 1.951       .   S
O19         C28 1.250       .   A
O18         C28 1.250       .   A
O18        Cu23 1.951       .   S
C422       H426 1.140       .   S
O267       C277 1.250       .   A
O267      Cu275 1.951       .   S
C236       C721 1.749       .   S
O226       C236 1.250       .   A
C237       C601 1.740       .   S
O227       C237 1.250       .   A
O225       C235 1.250       .   A
C235       C728 1.742       .   S
O229       C238 1.250       .   A
O228       C238 1.250       .   A
O269       C279 1.250       .   A
O269      Cu275 1.951       .   S
O268       C278 1.250       .   A
O268      Cu275 1.951       .   S
C799       H804 1.140       .   S
O127       C137 1.250       .   A
O127      Cu135 1.951       .   S
O120      Cu122 1.951       .   S
O120       C123 1.250       .   A
C797       H803 1.140       .   S
C619       C620 1.540       .   A
C619       H624 1.140       .   S
O128      Cu135 1.951       .   S
O128       C138 1.250       .   A
O129       C139 1.250       .   A
O129      Cu135 1.951       .   S
C628       C629 1.540       .   A
C629       H634 1.140       .   S
C629       C630 1.540       .   A
C165       C628 1.748       .   S
C627       C628 1.540       .   A
O175      Cu178 1.951       .   S
O174      Cu178 1.951       .   S
Cu177     Cu178 2.630       .   S
O176      Cu178 1.951       .   S
O173      Cu178 1.951       .   S
C632       H636 1.140       .   S
C620       C621 1.540       .   A
C621       C622 1.540       .   A
C621       C167 1.747       .   S
C659       H664 1.140       .   S
O171      Cu177 1.951       .   S
O170      Cu177 1.951       .   S
O172      Cu177 1.951       .   S
C622       H626 1.140       .   S
C617       C622 1.540       .   A
C630       H635 1.140       .   S
C627       H633 1.140       .   S
C627       C632 1.540       .   A
C450       H455 1.140       .   S
C450       C451 1.540       .   A
O190       C193 1.250       .   A
O190      Cu192 1.951       .   S
O197       C207 1.250       .   A
O197      Cu205 1.951       .   S
O199       C209 1.250       .   A
O199      Cu205 1.951       .   S
O198      Cu205 1.951       .   S
O198       C208 1.250       .   A
C577       H583 1.140       .   S
C457       H463 1.140       .   S
C457       C458 1.540       .   A
C457       C462 1.540       .   A
C717       H723 1.140       .   S
C720       H725 1.140       .   S
C719       H724 1.140       .   S
C722       H726 1.140       .   S
O315      Cu318 1.951       .   S
O314      Cu318 1.951       .   S
O316      Cu318 1.951       .   S
Cu317     Cu318 2.630       .   S
O313      Cu318 1.951       .   S
C717       C718 1.540       .   A
C717       C722 1.540       .   A
C224       C711 1.712   1_554   S
C710       C711 1.540       .   A
C711       C712 1.540       .   A
C709       C710 1.540       .   A
C710       H715 1.140       .   S
C497       C498 1.540       .   A
C81        C498 1.743       .   S
C498       C499 1.540       .   A
C707       C712 1.540       .   A
C712       H716 1.140       .   S
C497       C502 1.540       .   A
C497       H503 1.140       .   S
C719       C720 1.540       .   A
C718       C719 1.540       .   A
C222       C718 1.749       .   S
O311      Cu317 1.951       .   S
O310      Cu317 1.951       .   S
O312      Cu317 1.951       .   S
C491       C492 1.540       .   A
C491       C209 1.739       .   S
C490       C491 1.540       .   A
C509       C510 1.540       .   A
C510       C511 1.540       .   A
C657       C658 1.540       .   A
C658       C659 1.540       .   A
C658       C182 1.742       .   S
C308       C811 1.726       .   S
C306       C768 1.739       .   S
C307       C631 1.748   1_545   S
C305       C798 1.724       .   S
C650       H655 1.140       .   S
C650       C651 1.540       .   A
C649       C650 1.540       .   A
C264       C651 1.742   1_545   S
C651       C652 1.540       .   A
C647       C652 1.540       .   A
C652       H656 1.140       .   S
C347       H353 1.140       .   S
C347       C352 1.540       .   A
C609       H614 1.140       .   S
C612       H616 1.140       .   S
C607       H613 1.140       .   S
C589       H594 1.140       .   S
C587       H593 1.140       .   S
O36         C39 1.250       .   A
C39        C381 1.725   1_556   S
O218      Cu220 1.951       .   S
O215      Cu220 1.951       .   S
O216      Cu220 1.951       .   S
O217      Cu220 1.951       .   S
C749       H754 1.140       .   S
O146       C153 1.251       .   A
C153       C608 1.723       .   S
O143       C153 1.250       .   A
O147       C152 1.250       .   A
O142       C152 1.250       .   A
O148       C151 1.250       .   A
O141       C151 1.250       .   A
C401       C402 1.540       .   A
C402       H406 1.140       .   S
C397       C402 1.540       .   A
C407       H413 1.140       .   S
C407       C408 1.540       .   A
C407       C412 1.540       .   A
O144       C154 1.250       .   A
O145       C154 1.250       .   A
C154       C471 1.737       .   S
C408       C409 1.540       .   A
C409       C410 1.540       .   A
C409       H414 1.140       .   S
C429       C430 1.540       .   A
C428       C429 1.540       .   A
C429       H434 1.140       .   S
C390       C391 1.540       .   A
C391       C392 1.540       .   A
C196       C391 1.729       .   S
C390       H395 1.140       .   S
C389       C390 1.540       .   A
C427       C428 1.540       .   A
C397       C398 1.540       .   A
C397       H403 1.140       .   S
C398       C399 1.540       .   A
C399       H404 1.140       .   S
C399       C400 1.540       .   A
C124       C398 1.738       .   S
O258      Cu262 1.951       .   S
O258       C265 1.251       .   A
O259      Cu262 1.951       .   S
O259       C264 1.250       .   A
O254      Cu261 1.951       .   S
O254       C264 1.250       .   A
O255      Cu261 1.951       .   S
O255       C265 1.250       .   A
O256      Cu261 1.951       .   S
O256       C266 1.250       .   A
O257      Cu262 1.951       .   S
O257       C266 1.250       .   A
O253      Cu261 1.951       .   S
O253       C263 1.250       .   A
C500       H505 1.140       .   S
C499       H504 1.140       .   S
C502       H506 1.140       .   S
C421       C422 1.540       .   A
C420       C421 1.540       .   A
C56        C421 1.723       .   S
C277       C778 1.742       .   S
O274       C277 1.250       .   A
C419       C420 1.540       .   A
C460       H465 1.140       .   S
O273       C278 1.250       .   A
O272       C279 1.251       .   A
C771       C279 1.739       .   S
O229      Cu234 1.951       .   S
O228      Cu233 1.951       .   S
C477       C482 1.540       .   A
C477       C478 1.540       .   A
O62        Cu66 1.951       .   S
O63        Cu66 1.951       .   S
O61        Cu66 1.951       .   S
O64        Cu66 1.951       .   S
Cu65       Cu66 2.630       .   S
C577       C578 1.540       .   A
C578       C579 1.540       .   A
C125       C578 1.740       .   S
C467       C472 1.540       .   A
C472       H476 1.140       .   S
C471       C472 1.540       .   A
O60        Cu65 1.951       .   S
C577       C582 1.540       .   A
O225      Cu233 1.951       .   S
C570       H575 1.140       .   S
C570       C571 1.540       .   A
O227      Cu233 1.951       .   S
O226      Cu233 1.951       .   S
O130      Cu135 1.951       .   S
Cu135     Cu136 2.630       .   S
O131      Cu136 1.951       .   S
O133      Cu136 1.951       .   S
O132      Cu136 1.951       .   S
O134      Cu136 1.951       .   S
C342       H346 1.140       .   S
C372       H376 1.140       .   S
C369       H374 1.140       .   S
C370       H375 1.140       .   S
C367       H373 1.140       .   S
C572       H576 1.140       .   S
C567       H573 1.140       .   S
C470       H475 1.140       .   S
C469       H474 1.140       .   S
C467       H473 1.140       .   S
O315       C320 1.250       .   A
O49         C54 1.250       .   A
O316       C319 1.250       .   A
O311       C321 1.250       .   A
O310       C320 1.250       .   A
O313       C322 1.250       .   A
O312       C322 1.250       .   A
O43         C53 1.250       .   A
O44         C54 1.250       .   A
O45         C55 1.250       .   A
O46         C56 1.250       .   A
O47         C56 1.250       .   A
C547       H553 1.140       .   S
C758       C759 1.540       .   A
C322       C758 1.724   1_565   S
C607       C612 1.540       .   A
C617       H623 1.140       .   S
O175       C180 1.250       .   A
O174       C181 1.251       .   A
O176       C179 1.250       .   A
O171       C181 1.250       .   A
O170       C180 1.250       .   A
O173       C182 1.250       .   A
O172       C182 1.250       .   A
C367       C368 1.540       .   A
C367       C372 1.540       .   A
C700       H705 1.140       .   S
C549       H554 1.140       .   S
C707       H713 1.140       .   S
C709       H714 1.140       .   S
O60         C70 1.250       .   A
O61         C70 1.250       .   A
C70        C468 1.737       .   S
C647       H653 1.140       .   S
C499       C500 1.540       .   A
C649       H654 1.140       .   S
Cu93       Cu94 2.630       .   S
O92        Cu94 1.951       .   S
O91        Cu94 1.951       .   S
O90        Cu94 1.951       .   S
Cu261     Cu262 2.630       .   S
C357       H363 1.140       .   S
C357       C362 1.540       .   A
C727       C728 1.540       .   A
C728       C729 1.540       .   A
C729       H734 1.140       .   S
C729       C730 1.540       .   A
C667       C672 1.540       .   A
C667       H673 1.140       .   S
C351       C352 1.540       .   A
C352       H356 1.140       .   S
C727       C732 1.540       .   A
C727       H733 1.140       .   S
C720       C721 1.540       .   A
C721       C722 1.540       .   A
C688       C689 1.540       .   A
C688       C207 1.752       .   S
C687       C688 1.540       .   A
O288      Cu290 1.951       .   S
O287      Cu290 1.951       .   S
O286      Cu290 1.951       .   S
O285      Cu290 1.951       .   S
C489       C490 1.540       .   A
C681       C682 1.540       .   A
C682       H686 1.140       .   S
C677       C682 1.540       .   A
C680       C681 1.540       .   A
C223       C681 1.729       .   S
C679       C680 1.540       .   A
C680       H685 1.140       .   S
C677       H683 1.140       .   S
C458       C459 1.540       .   A
C54        C458 1.723       .   S
C530       C531 1.540       .   A
C531       C532 1.540       .   A
C168       C531 1.749   1_565   S
C530       H535 1.140       .   S
C529       C530 1.540       .   A
Cu23       Cu24 2.630       .   S
C532       H536 1.140       .   S
C537       C538 1.540       .   A
C537       H543 1.140       .   S
C537       C542 1.540       .   A
C459       C460 1.540       .   A
C777       H783 1.140       .   S
C782       H786 1.140       .   S
C780       H785 1.140       .   S
C779       H784 1.140       .   S
C438       C439 1.540       .   A
C55        C438 1.723       .   S
C437       C438 1.540       .   A
C517       H523 1.140       .   S
C430       C431 1.540       .   A
C430       H435 1.140       .   S
O113       C123 1.250       .   A
C431       C432 1.540       .   A
C427       C432 1.540       .   A
C432       H436 1.140       .   S
O117       C126 1.250       .   A
O116       C126 1.250       .   A
C126       C551 1.738       .   S
O119       C124 1.250       .   A
O114       C124 1.250       .   A
O118       C125 1.251       .   A
O115       C125 1.250       .   A
C657       H663 1.140       .   S
O328      Cu332 1.951       .   S
O328       C335 1.251       .   A
O329      Cu332 1.951       .   S
O329       C334 1.250       .   A
O324      Cu331 1.951       .   S
O324       C334 1.250       .   A
O325       C335 1.250       .   A
O325      Cu331 1.951       .   S
O326       C336 1.250       .   A
O326      Cu331 1.951       .   S
O327      Cu332 1.951       .   S
O327       C336 1.250       .   A
O323       C333 1.250       .   A
O323      Cu331 1.951       .   S
C427       H433 1.140       .   S
O288       C291 1.250       .   A
C350       C351 1.540       .   A
C350       H355 1.140       .   S
O283       C293 1.250       .   A
O282       C292 1.250       .   A
O281       C291 1.250       .   A
C519       H524 1.140       .   S
O287       C292 1.250       .   A
O286       C293 1.251       .   A
O285       C294 1.250       .   A
O284       C294 1.250       .   A
C557       H563 1.140       .   S
C557       C558 1.540       .   A
C528        C97 1.749       .   S
O90         C97 1.251       .   A
C96        C541 1.738       .   S
O91         C96 1.250       .   A
O92         C95 1.250       .   A
C461        C95 1.723   1_565   S
C669       C670 1.540       .   A
C669       H674 1.140       .   S
C518        C98 1.724       .   S
C529       H534 1.140       .   S
O211       C221 1.250       .   A
O212       C222 1.250       .   A
O213       C223 1.250       .   A
O214       C224 1.250       .   A
O215       C224 1.250       .   A
O216       C223 1.251       .   A
O217       C222 1.250       .   A
O218       C221 1.250       .   A
C221       C431 1.736   1_554   S
C548       C549 1.540       .   A
C549       C550 1.540       .   A
O131       C140 1.250       .   A
O130       C140 1.250       .   A
O133       C138 1.250       .   A
O132       C139 1.251       .   A
O134       C137 1.250       .   A
C550       C551 1.540       .   A
C550       H555 1.140       .   S
C338        C13 1.748       .   S
C338       C339 1.540       .   A
C337       C338 1.540       .   A
Cu163     Cu164 2.630       .   S
O159      Cu164 1.951       .   S
O157      Cu163 1.951       .   S
O156      Cu163 1.951       .   S
O155      Cu163 1.951       .   S
O158      Cu163 1.951       .   S
C439       H444 1.140       .   S
C440       H445 1.140       .   S
C442       H446 1.140       .   S
C437       H443 1.140       .   S
O145      Cu150 1.951       .   S
O146      Cu150 1.951       .   S
O147      Cu150 1.951       .   S
Cu303     Cu304 2.630       .   S
O148      Cu150 1.951       .   S
C467       C468 1.540       .   A
C648       C649 1.540       .   A
C647       C648 1.540       .   A
C180       C648 1.742       .   S
C631       C632 1.540       .   A
C637       C642 1.540       .   A
C641       C642 1.540       .   A
C291       C641 1.743   1_545   S
C640       C641 1.540       .   A
C639       C640 1.540       .   A
C630       C631 1.540       .   A
C26        C388 1.729       .   S
C27        C401 1.738       .   S
C25        C361 1.739   1_554   S
C28        C378 1.725       .   S
C580       H585 1.140       .   S
C579       H584 1.140       .   S
C582       H586 1.140       .   S
Cu233     Cu234 2.630       .   S
C739       H744 1.140       .   S
C737       H743 1.140       .   S
O159       C168 1.250       .   A
O158       C168 1.250       .   A
O156       C166 1.250       .   A
C166       C411 1.748       .   S
O157       C167 1.250       .   A
O155       C165 1.250       .   A
C538       C539 1.540       .   A
C539       C540 1.540       .   A
C11        C368 1.752       .   S
C368       C369 1.540       .   A
C369       C370 1.540       .   A
C468       C469 1.540       .   A
C360       H365 1.140       .   S
C360       C361 1.540       .   A
C361       C362 1.540       .   A
C362       H366 1.140       .   S
C181       C638 1.743       .   S
O246      Cu248 1.951       .   S
O245       C250 1.250       .   A
O245      Cu248 1.951       .   S
O244       C251 1.251       .   A
O244      Cu248 1.951       .   S
O243       C252 1.250       .   A
O243      Cu248 1.951       .   S
O242      Cu247 1.951       .   S
O242       C252 1.250       .   A
O241      Cu247 1.951       .   S
O241       C251 1.250       .   A
O240      Cu247 1.951       .   S
O240       C250 1.250       .   A
C558       C265 1.729       .   S
C508       C509 1.540       .   A
C508       C139 1.729   1_655   S
C507       C508 1.540       .   A
O74        Cu79 1.951       .   S
O71        Cu79 1.951       .   S
O73        Cu79 1.951       .   S
O72        Cu79 1.951       .   S
C461       C462 1.540       .   A
C460       C461 1.540       .   A
C500       C501 1.540       .   A
C179       C501 1.743       .   S
C501       C502 1.540       .   A
C469       C470 1.540       .   A
C507       C512 1.540       .   A
O119      Cu122 1.951       .   S
O118      Cu122 1.951       .   S
O117      Cu122 1.951       .   S
Cu121     Cu122 2.630       .   S
C400       C401 1.540       .   A
O113      Cu121 1.951       .   S
O116      Cu121 1.951       .   S
O115      Cu121 1.951       .   S
O114      Cu121 1.951       .   S
C400       H405 1.140       .   S
C68        C478 1.740       .   S
C560       H565 1.140       .   S
C559       H564 1.140       .   S
O201       C210 1.250       .   A
O200       C210 1.250       .   A
O78         C81 1.250       .   A
O75         C84 1.250       .   A
O74         C84 1.250       .   A
O77         C82 1.250       .   A
O76         C83 1.251       .   A
O71         C81 1.250       .   A
O73         C83 1.250       .   A
O72         C82 1.250       .   A
C439       C440 1.540       .   A
C602       H606 1.140       .   S
C601       C602 1.540       .   A
C600       C601 1.540       .   A
C600       H605 1.140       .   S
C771       C772 1.540       .   A
C770       C771 1.540       .   A
O188      Cu192 1.951       .   S
O189      Cu192 1.951       .   S
Cu191     Cu192 2.630       .   S
O187      Cu192 1.951       .   S
O183      Cu191 1.951       .   S
O184      Cu191 1.951       .   S
O185      Cu191 1.951       .   S
O186      Cu191 1.951       .   S
O106       C109 1.250       .   A
C387       C392 1.540       .   A
C392       H396 1.140       .   S
C702       H706 1.140       .   S
O63         C68 1.250       .   A
O62         C69 1.251       .   A
C69        C371 1.752   1_455   S
C67        C488 1.739       .   S
O64         C67 1.250       .   A
C567       C572 1.540       .   A
O272      Cu276 1.951       .   S
O273      Cu276 1.951       .   S
O271      Cu276 1.951       .   S
O274      Cu276 1.951       .   S
Cu275     Cu276 2.630       .   S
O270      Cu275 1.951       .   S
C320       C671 1.723       .   S
O314       C321 1.251       .   A
C738       C739 1.540       .   A
C737       C738 1.540       .   A
C250       C738 1.745       .   S
C732       H736 1.140       .   S
C731       C732 1.540       .   A
C731       C334 1.742       .   S
C730       C731 1.540       .   A
C730       H735 1.140       .   S
O6          C13 1.251       .   A
O3          C13 1.250       .   A
O7          C12 1.250       .   A
C351        C12 1.741       .   S
O2          C12 1.250       .   A
O1          C11 1.250       .   A
O8          C11 1.250       .   A
O5          C14 1.250       .   A
O4          C14 1.250       .   A
C588       C137 1.727       .   S
O31        Cu37 1.951       .   S
O30        Cu37 1.951       .   S
O32        Cu37 1.951       .   S
Cu37       Cu38 2.630       .   S
O33        Cu38 1.951       .   S
O35        Cu38 1.951       .   S
O34        Cu38 1.951       .   S
O36        Cu38 1.951       .   S
C559       C560 1.540       .   A
C138       C581 1.740   1_455   S
C781       C782 1.540       .   A
C777       C782 1.540       .   A
C779       C780 1.540       .   A
C780       C781 1.540       .   A
C292       C781 1.742   1_655   S
C787       C788 1.540       .   A
C787       C792 1.540       .   A
C417       C422 1.540       .   A
C294       C788 1.729       .   S
C788       C789 1.540       .   A
C789       C790 1.540       .   A
O330       C333 1.250       .   A
O330      Cu332 1.951       .   S
C337       C342 1.540       .   A
C339       C340 1.540       .   A
C451        C83 1.722       .   S
C511        C84 1.729       .   S
C679       H684 1.140       .   S
C772       H776 1.140       .   S
O203      Cu206 1.951       .   S
O203       C208 1.250       .   A
O202      Cu206 1.951       .   S
O202       C209 1.251       .   A
O201      Cu206 1.951       .   S
O200      Cu205 1.951       .   S
C547       C552 1.540       .   A
C552       H556 1.140       .   S
C551       C552 1.540       .   A
O204       C207 1.250       .   A
O204      Cu206 1.951       .   S
C252       C701 1.726   1_554   S
C558       C559 1.540       .   A
C812       H816 1.140       .   S
C811       C812 1.540       .   A
C810       H815 1.140       .   S
C810       C811 1.540       .   A
O4          Cu9 1.951       .   S
O3          Cu9 1.951       .   S
O2          Cu9 1.951       .   S
O1          Cu9 1.951       .   S
C452       H456 1.140       .   S
C489       H494 1.140       .   S
C547       C548 1.540       .   A
C540       C541 1.540       .   A
C541       C542 1.540       .   A
Cu331     Cu332 2.630       .   S
C770       H775 1.140       .   S
C777       C778 1.540       .   A
C778       C779 1.540       .   A
C678       C679 1.540       .   A
C677       C678 1.540       .   A
C194       C678 1.729       .   S
C671       C672 1.540       .   A
C672       H676 1.140       .   S
C670       C671 1.540       .   A
C670       H675 1.140       .   S
C607       C608 1.540       .   A
C580       C581 1.540       .   A
C579       C580 1.540       .   A
C581       C582 1.540       .   A
Cu205     Cu206 2.630       .   S
C587       C588 1.540       .   A
C588       C589 1.540       .   A
C608       C609 1.540       .   A
C379       C380 1.540       .   A
C378       C379 1.540       .   A
C377       C378 1.540       .   A
C377       C382 1.540       .   A
C371       C372 1.540       .   A
C370       C371 1.540       .   A
C470       C471 1.540       .   A
O186       C196 1.250       .   A
O187       C196 1.250       .   A
O188       C195 1.251       .   A
O185       C195 1.250       .   A
O189       C194 1.250       .   A
O184       C194 1.250       .   A
O183       C193 1.250       .   A
C480       H485 1.140       .   S
C488       C489 1.540       .   A
C451       C452 1.540       .   A
C571       C336 1.739   1_655   S
C571       C572 1.540       .   A
C518       C519 1.540       .   A
C517       C518 1.540       .   A
O99        C109 1.250       .   A
C511       C512 1.540       .   A
C437       C442 1.540       .   A
C528       C529 1.540       .   A
C389       H394 1.140       .   S
C387       H393 1.140       .   S
C412       H416 1.140       .   S
C410       H415 1.140       .   S
C208       C708 1.712       .   S
C637       C638 1.540       .   A
C638       C639 1.540       .   A
Cu247     Cu248 2.630       .   S
C791       C333 1.729   1_655   S
C708       C709 1.540       .   A
C707       C708 1.540       .   A
C701       C702 1.540       .   A
C700       C701 1.540       .   A
C381       C382 1.540       .   A
C417       C418 1.540       .   A
C411       C412 1.540       .   A
C410       C411 1.540       .   A
C418       C419 1.540       .   A
C387       C388 1.540       .   A
C798       C799 1.540       .   A
C797       C798 1.540       .   A
C380       C381 1.540       .   A
C388       C389 1.540       .   A
C790       C791 1.540       .   A
C791       C792 1.540       .   A
