data_sst_v1-4c_Cu_1_Ch_1B_4H_Ch
_audit_creation_date              2020-02-03
_audit_creation_method            'tobacco_3.0'
_symmetry_space_group_name_H-M    'P1'
_symmetry_Int_Tables_number       1
_symmetry_cell_setting            triclinic
loop_
_symmetry_equiv_pos_as_xyz
  x,y,z
_cell_length_a                    44.73926887431906
_cell_length_b                    44.739269543441644
_cell_length_c                    44.73926887431939
_cell_angle_alpha                 89.99999999999913
_cell_angle_beta                  89.99999999474123
_cell_angle_gamma                 89.99999999474115
loop_
_atom_site_label
_atom_site_type_symbol
_atom_site_fract_x
_atom_site_fract_y
_atom_site_fract_z
O1         O    0.1249999208    0.0816326580    0.3998530724
O2         O    0.1249993105    0.1683675962    0.3998519985
O3         O    0.0816312291    0.1250037743    0.3998510337
O4         O    0.1683711624    0.1249996417    0.3998540425
O5         O    0.1683719311    0.1249993876    0.3501489716
O6         O    0.0816351591    0.1250003604    0.3501460441
O7         O    0.1250000792    0.1683673420    0.3501469276
O8         O    0.1250006895    0.0816324038    0.3501480015
Cu9       Cu    0.1249991652    0.1250025129    0.4043884193
Cu10      Cu    0.1250008348    0.1249974871    0.3456115807
C11        C    0.1249998572    0.0688437271    0.3750000403
C12        C    0.1250001428    0.1811562729    0.3749999597
C13        C    0.0688456825    0.1249999040    0.3750000635
C14        C    0.1811543175    0.1250000960    0.3749999365
O15        O    0.1250000114    0.9183670004    0.3501474500
O16        O    0.1249994376    0.8316320623    0.3501486106
O17        O    0.0816313380    0.8749958659    0.3501495806
O18        O    0.1683712712    0.8750000349    0.3501464748
O19        O    0.1683720955    0.8750003388    0.3998515457
O20        O    0.0816353235    0.8749993295    0.3998545702
O21        O    0.1250002619    0.8316323661    0.3998536815
O22        O    0.1250008357    0.9183673043    0.3998525209
Cu23      Cu    0.1249992691    0.8749971411    0.3456121465
Cu24      Cu    0.1250010043    0.8750022255    0.4043889850
C25        C    0.1249999703    0.9311559562    0.3750004693
C26        C    0.1250003030    0.8188434104    0.3750006621
C27        C    0.0688458191    0.8749997557    0.3750005650
C28        C    0.1811544542    0.8749996109    0.3750005665
O29        O    0.9183677765    0.1250000618    0.3501470087
O30        O    0.8316328371    0.1250007057    0.3501479611
O31        O    0.8749966764    0.1683687696    0.3501489919
O32        O    0.8750007753    0.0816288377    0.3501459726
O33        O    0.8750009599    0.0816280630    0.3998510435
O34        O    0.8750000207    0.1683648337    0.3998539815
O35        O    0.8316330216    0.1249999310    0.3998530320
O36        O    0.9183679611    0.1249992871    0.3998520796
Cu37      Cu    0.8749979274    0.1250008347    0.3456116010
Cu38      Cu    0.8750028707    0.1249991581    0.4043884396
C39        C    0.9311566728    0.1250001174    0.3750000587
C40        C    0.8188441253    0.1249998754    0.3749999820
C41        C    0.8750005169    0.1811543131    0.3749999636
C42        C    0.8750002813    0.0688456797    0.3750000770
O43        O    0.8750004906    0.9183670552    0.3501474389
O44        O    0.8749998899    0.8316321170    0.3501485732
O45        O    0.8316318037    0.8749959341    0.3501495659
O46        O    0.9183717370    0.8750000763    0.3501464409
O47        O    0.9183725722    0.8750003650    0.3998515118
O48        O    0.8316358002    0.8749993826    0.3998545555
O49        O    0.8750007252    0.8316324058    0.3998536441
O50        O    0.8750013258    0.9183673439    0.3998525098
Cu51      Cu    0.8749997338    0.8749971972    0.3456121222
Cu52      Cu    0.8750014820    0.8750022638    0.4043889608
C53        C    0.8750004589    0.9311560034    0.3750004621
C54        C    0.8750007569    0.8188434576    0.3750006208
C55        C    0.8188462903    0.8749998203    0.3750005531
C56        C    0.9311549254    0.8749996407    0.3750005298
O57        O    0.1498535283    0.3749991735    0.3316328393
O58        O    0.1498525414    0.3749984723    0.4183677788
O59        O    0.1498514210    0.3316304370    0.3750039107
O60        O    0.1498546540    0.4183703690    0.3749998692
O61        O    0.1001495831    0.4183712662    0.3749996649
O62        O    0.1001464314    0.3316344955    0.3750005467
O63        O    0.1001474706    0.3749993695    0.4183675745
O64        O    0.1001484574    0.3750000707    0.3316326351
Cu65      Cu    0.1543889187    0.3749983608    0.3750026902
Cu66      Cu    0.0956120801    0.3750001822    0.3749977236
C67        C    0.1250004833    0.3749991877    0.3188439332
C68        C    0.1250005155    0.3749993554    0.4311564807
C69        C    0.1250004178    0.3188449548    0.3750000520
C70        C    0.1250005811    0.4311535882    0.3750003619
O71        O    0.1498536220    0.4183665186    0.6250001273
O72        O    0.1498524647    0.3316315805    0.6249994088
O73        O    0.1498514958    0.3749954565    0.5816313815
O74        O    0.1498545962    0.3749994808    0.6683713148
O75        O    0.1001495253    0.3749997827    0.6683721360
O76        O    0.1001465062    0.3749989181    0.5816353640
O77        O    0.1001473938    0.3316318824    0.6250002300
O78        O    0.1001485511    0.4183668206    0.6250009485
Cu79      Cu    0.1543889272    0.3749966594    0.6249993129
Cu80      Cu    0.0956120886    0.3750017416    0.6250010445
C81        C    0.1250006021    0.4311554734    0.6250001060
C82        C    0.1250004136    0.3188429276    0.6250002514
C83        C    0.1250005121    0.3749993666    0.5688458611
C84        C    0.1250005037    0.3749990344    0.6811544962
O85        O    0.1001476543    0.6683664258    0.3750009484
O86        O    0.1001487289    0.5816314877    0.3750015748
O87        O    0.1001497264    0.6249953177    0.4183696482
O88        O    0.1001466516    0.6249994340    0.3316297149
O89        O    0.1498517225    0.6249996886    0.3316289084
O90        O    0.1498547160    0.6249987319    0.4183656804
O91        O    0.1498537998    0.5816317422    0.3750007683
O92        O    0.1498527252    0.6683666804    0.3750001419
Cu93      Cu    0.0956123078    0.6249965710    0.3750017155
Cu94      Cu    0.1543891463    0.6250015971    0.3750000013
C95        C    0.1250006863    0.6811553570    0.3750009907
C96        C    0.1250007678    0.5688428111    0.3750007261
C97        C    0.1250007063    0.6249991905    0.4311551759
C98        C    0.1250007478    0.6249989776    0.3188465408
O99        O    0.1001477517    0.6683665569    0.6250006974
O100       O    0.1001488348    0.5816316188    0.6250013091
O101       O    0.1001499141    0.6249954414    0.6683693898
O102       O    0.1001466672    0.6249995725    0.5816294566
O103       O    0.1498517380    0.6249998319    0.5816285514
O104       O    0.1498549037    0.6249988605    0.6683653234
O105       O    0.1498539057    0.5816318782    0.6250004040
O106       O    0.1498528226    0.6683668163    0.6249997923
Cu107     Cu    0.0956124094    0.6249967016    0.6250014661
Cu108     Cu    0.1543892480    0.6250017335    0.6249996353
C109       C    0.1250007825    0.6811554905    0.6250006925
C110       C    0.1250008749    0.5688429446    0.6250004089
C111       C    0.1250009194    0.6249993145    0.6811548682
C112       C    0.1250007380    0.6249991206    0.5688462332
O113       O    0.6683668141    0.1498529569    0.3749997491
O114       O    0.5816318746    0.1498519360    0.3750003805
O115       O    0.6249957078    0.1498509060    0.4183684513
O116       O    0.6249998191    0.1498539922    0.3316285181
O117       O    0.6250000429    0.1001489220    0.3316277050
O118       O    0.6249990913    0.1001459171    0.4183644770
O119       O    0.5816320984    0.1001468658    0.3749995675
O120       O    0.6683670379    0.1001478868    0.3749989360
Cu121     Cu    0.6249969614    0.1543883302    0.3750005192
Cu122     Cu    0.6250019512    0.0956114925    0.3749987973
C123       C    0.6811557300    0.1249999174    0.3749997873
C124       C    0.5688431825    0.1249999054    0.3749995292
C125       C    0.6249995660    0.1249999248    0.4311539758
C126       C    0.6249993465    0.1249998980    0.3188453407
O127       O    0.6683668869    0.1498528000    0.6249997126
O128       O    0.5816319475    0.1498518154    0.6250003048
O129       O    0.6249957610    0.1498507279    0.6683683952
O130       O    0.6249999116    0.1498538927    0.5816284620
O131       O    0.6250001146    0.1001488226    0.5816276039
O132       O    0.6249991237    0.1001457390    0.6683643759
O133       O    0.5816321505    0.1001467452    0.6249994467
O134       O    0.6683670899    0.1001477299    0.6249988545
Cu135     Cu    0.6249970361    0.1543881915    0.6250004673
Cu136     Cu    0.6250020013    0.0956113538    0.6249986920
C137       C    0.6811557925    0.1249997551    0.6249997341
C138       C    0.5688432449    0.1249997901    0.6249994252
C139       C    0.6249996030    0.1249997351    0.6811538972
C140       C    0.6249994344    0.1249998101    0.5688452621
O141       O    0.3749991319    0.1498529737    0.3316320885
O142       O    0.3749998234    0.1498519824    0.4183670280
O143       O    0.4183678642    0.1498509196    0.3750031648
O144       O    0.3316279309    0.1498540418    0.3749991136
O145       O    0.3316270972    0.1001489717    0.3749989068
O146       O    0.4183638692    0.1001459307    0.3749997982
O147       O    0.3749989897    0.1001469123    0.4183668212
O148       O    0.3749982982    0.1001479036    0.3316318817
Cu149     Cu    0.3749999340    0.1543883619    0.3750019397
Cu150     Cu    0.3749981876    0.0956115241    0.3749969700
C151       C    0.3749991509    0.1249999298    0.3188431811
C152       C    0.3749989707    0.1249999562    0.4311557286
C153       C    0.4311533783    0.1249999330    0.3749993062
C154       C    0.3188447433    0.1249999530    0.3749996035
O155       O    0.3749990496    0.1498527769    0.6683670928
O156       O    0.3749983437    0.1498518370    0.5816321534
O157       O    0.3316303101    0.1498507419    0.6249960238
O158       O    0.4183702434    0.1498538774    0.6250000606
O159       O    0.4183710847    0.1001488072    0.6250002379
O160       O    0.3316343127    0.1001457530    0.6249993608
O161       O    0.3749991850    0.1001467669    0.5816323307
O162       O    0.3749998909    0.1001477068    0.6683672701
Cu163     Cu    0.3749982396    0.1543881908    0.6249972443
Cu164     Cu    0.3749999950    0.0956113531    0.6250021792
C165       C    0.3749990365    0.1249997254    0.6811559855
C166       C    0.3749991981    0.1249998184    0.5688434380
C167       C    0.3188447998    0.1249997534    0.6249998697
C168       C    0.4311534348    0.1249997904    0.6249995538
O169       O    0.8501480840    0.5816317948    0.3750006331
O170       O    0.8501490852    0.6683667330    0.3750000231
O171       O    0.8501501116    0.6250029112    0.3316319415
O172       O    0.8501470523    0.6249987784    0.4183718748
O173       O    0.8998521232    0.6249985659    0.4183726724
O174       O    0.8998551012    0.6249995390    0.3316359004
O175       O    0.8998541561    0.6683665205    0.3750008207
O176       O    0.8998531548    0.5816315823    0.3750014307
Cu177     Cu    0.8456127007    0.6250016459    0.3749998750
Cu178     Cu    0.9043895393    0.6249966694    0.3750015787
C179       C    0.8750011268    0.5688428847    0.3750005840
C180       C    0.8750011133    0.6811554305    0.3750008698
C181       C    0.8750010892    0.6249990618    0.3188464093
C182       C    0.8750011509    0.6249992535    0.4311550444
O183       O    0.8998546382    0.6249993124    0.6683682650
O184       O    0.8998533176    0.6249999923    0.5816333256
O185       O    0.8998524300    0.6683680383    0.6249971830
O186       O    0.8998555311    0.5816281063    0.6250012458
O187       O    0.8501504602    0.5816272847    0.6250016414
O188       O    0.8501474404    0.6683640554    0.6250007382
O189       O    0.8501482467    0.6249991707    0.5816337211
O190       O    0.8501495673    0.6249984909    0.6683686606
Cu191     Cu    0.9043898618    0.6250001076    0.6249983967
Cu192     Cu    0.8456130232    0.6249983756    0.6250035895
C193       C    0.8750016425    0.6249993393    0.6811572668
C194       C    0.8750012425    0.6249991439    0.5688447193
C195       C    0.8750014463    0.6811535583    0.6250011342
C196       C    0.8750014387    0.5688449249    0.6250008520
O197       O    0.8998536508    0.3749992291    0.3316326425
O198       O    0.8998527564    0.3749985415    0.4183675819
O199       O    0.8998515902    0.3316304994    0.3750037207
O200       O    0.8998548222    0.4183704314    0.3749996655
O201       O    0.8501497513    0.4183713280    0.3749995142
O202       O    0.8501466006    0.3316345572    0.3750004097
O203       O    0.8501476855    0.3749994381    0.4183674306
O204       O    0.8501485799    0.3750001257    0.3316324912
Cu205     Cu    0.9043890874    0.3749984232    0.3750024886
Cu206     Cu    0.8456122488    0.3750002440    0.3749975845
C207       C    0.8750005922    0.3749992409    0.3188437628
C208       C    0.8750007441    0.3749994262    0.4311563103
C209       C    0.8750005872    0.3188450169    0.3749998904
C210       C    0.8750007491    0.4311536503    0.3750001827
O211       O    0.8501475884    0.3316319063    0.6250000884
O212       O    0.8501487677    0.4183668444    0.6249995612
O213       O    0.8501497846    0.3750030641    0.5816314383
O214       O    0.8501465662    0.3749988484    0.6683713715
O215       O    0.8998516370    0.3749985339    0.6683722604
O216       O    0.8998547742    0.3749995898    0.5816354884
O217       O    0.8998538385    0.4183665299    0.6250004501
O218       O    0.8998526592    0.3316315917    0.6250009772
Cu219     Cu    0.8456122942    0.3750017666    0.6249993635
Cu220     Cu    0.9043891327    0.3749966695    0.6250011750
C221       C    0.8750006050    0.3188429452    0.6250000727
C222       C    0.8750008220    0.4311554910    0.6250004658
C223       C    0.8750007857    0.3749991758    0.5688459517
C224       C    0.8750006412    0.3749992603    0.6811545868
O225       O    0.3749993987    0.8501468100    0.4183679145
O226       O    0.3750000238    0.8501478002    0.3316329751
O227       O    0.4183680978    0.8501488727    0.3749968050
O228       O    0.3316281645    0.8501457322    0.3750009227
O229       O    0.3316273203    0.8998508024    0.3750011289
O230       O    0.4183640923    0.8998538616    0.3750001709
O231       O    0.3749991796    0.8998528704    0.3316331812
O232       O    0.3749985545    0.8998518801    0.4183681207
Cu233     Cu    0.3750001685    0.8456114213    0.3749980634
Cu234     Cu    0.3749984098    0.9043882590    0.3750030324
C235       C    0.3749994223    0.8749998541    0.4311568216
C236       C    0.3749991560    0.8749998263    0.3188442741
C237       C    0.4311536067    0.8749998620    0.3750006535
C238       C    0.3188449716    0.8749998184    0.3750004423
O239       O    0.3316320503    0.8998528653    0.6250007385
O240       O    0.4183669898    0.8998519036    0.6250001017
O241       O    0.3750031540    0.8998508406    0.5816320335
O242       O    0.3749990480    0.8998539336    0.6683719668
O243       O    0.3749988581    0.8501488635    0.6683727837
O244       O    0.3749998044    0.8501458518    0.5816360117
O245       O    0.4183667999    0.8501468335    0.6250009186
O246       O    0.3316318605    0.8501477952    0.6250015554
Cu247     Cu    0.3750018999    0.9043882683    0.6249999653
Cu248     Cu    0.3749969503    0.8456114306    0.6250016918
C249       C    0.3188431514    0.8749998170    0.6250007030
C250       C    0.4311556989    0.8749998818    0.6250009541
C251       C    0.3749993119    0.8749998584    0.5688465110
C252       C    0.3749995383    0.8749998404    0.6811551461
O253       O    0.6683674019    0.8501468636    0.6250007034
O254       O    0.5816324624    0.8501479086    0.6250000513
O255       O    0.6249963058    0.8501489370    0.5816319908
O256       O    0.6250003966    0.8501458299    0.6683719241
O257       O    0.6250006342    0.8998509001    0.6683727491
O258       O    0.6249997031    0.8998539259    0.5816359771
O259       O    0.5816327000    0.8998529787    0.6250008764
O260       O    0.6683676394    0.8998519338    0.6250015284
Cu261     Cu    0.6249975479    0.8456115023    0.6249999218
Cu262     Cu    0.6250025540    0.9043883400    0.6250016579
C263       C    0.6811563247    0.8749998996    0.6250006741
C264       C    0.5688437772    0.8749999427    0.6250009056
C265       C    0.6250001740    0.8749999213    0.5688464723
C266       C    0.6249999278    0.8749999210    0.6811551074
O267       O    0.6683671849    0.8998529086    0.3750007197
O268       O    0.5816322455    0.8998519159    0.3750014271
O269       O    0.6249961166    0.8998508765    0.4183694600
O270       O    0.6250001519    0.8998539532    0.3316295267
O271       O    0.6250003595    0.8501488831    0.3316287191
O272       O    0.6249994839    0.8501458877    0.4183654911
O273       O    0.5816324531    0.8501468458    0.3750006195
O274       O    0.6683673925    0.8501478384    0.3749999121
Cu275     Cu    0.6249973337    0.9043882960    0.3750015274
Cu276     Cu    0.6250023043    0.8456114583    0.3749998119
C277       C    0.6811560927    0.8749998649    0.3750007494
C278       C    0.5688435452    0.8749998895    0.3750005898
C279       C    0.6249999779    0.8749998967    0.4311549871
C280       C    0.6249996600    0.8749998576    0.3188463521
O281       O    0.1249999693    0.9183669743    0.6001475512
O282       O    0.1249994124    0.8316320362    0.6001486270
O283       O    0.0816313043    0.8749958314    0.6001496278
O284       O    0.1683712376    0.8750000173    0.6001465451
O285       O    0.1683720487    0.8750002725    0.6498516160
O286       O    0.0816352767    0.8749992464    0.6498546174
O287       O    0.1250002235    0.8316322914    0.6498536979
O288       O    0.1250007804    0.9183672296    0.6498526221
Cu289     Cu    0.1249992366    0.8749971194    0.5956122052
Cu290     Cu    0.1250009562    0.8750021464    0.6543890438
C291       C    0.1249999191    0.9311559058    0.6250005830
C292       C    0.1250002737    0.8188433600    0.6250006660
C293       C    0.0688457789    0.8749996944    0.6250006089
C294       C    0.1811544139    0.8749995714    0.6250006402
O295       O    0.1249999110    0.0816322701    0.6498532610
O296       O    0.1249992868    0.1683672082    0.6498521720
O297       O    0.0816312123    0.1250033794    0.6498512041
O298       O    0.1683711456    0.1249992608    0.6498542342
O299       O    0.1683719266    0.1249989980    0.6001491634
O300       O    0.0816351546    0.1249999568    0.6001462144
O301       O    0.1250000678    0.1683669454    0.6001471011
O302       O    0.1250006920    0.0816320072    0.6001481902
Cu303     Cu    0.1249991474    0.1250021257    0.6543886004
Cu304     Cu    0.1250008314    0.1249970898    0.5956117618
C305       C    0.1249998556    0.0688433348    0.6250002312
C306       C    0.1250001231    0.1811558806    0.6250001310
C307       C    0.0688456718    0.1249995027    0.6250002307
C308       C    0.1811543069    0.1249997128    0.6250001314
O309       O    0.9183678070    0.1249995417    0.6498532473
O310       O    0.8316328676    0.1249989067    0.6498521313
O311       O    0.8749967025    0.0816308383    0.6498511749
O312       O    0.8750008103    0.1683707703    0.6498542089
O313       O    0.8750010886    0.1683715534    0.6001491381
O314       O    0.8750001405    0.0816347827    0.6001461853
O315       O    0.8316331459    0.1249996899    0.6001470604
O316       O    0.9183680853    0.1250003248    0.6001481764
Cu317     Cu    0.8749979493    0.1249987725    0.6543885732
Cu318     Cu    0.8750030035    0.1250004591    0.5956117346
C319       C    0.9311567502    0.1249994890    0.6250002214
C320       C    0.8188442027    0.1249997425    0.6250000863
C321       C    0.8750005885    0.0688452991    0.6250002010
C322       C    0.8750003644    0.1811539325    0.6250001067
O323       O    0.8750006203    0.9183669757    0.6001475752
O324       O    0.8750000327    0.8316320375    0.6001487325
O325       O    0.8316319400    0.8749958481    0.6001497190
O326       O    0.9183718732    0.8750000033    0.6001465834
O327       O    0.9183727146    0.8750003052    0.6498516543
O328       O    0.8316359426    0.8749993097    0.6498547086
O329       O    0.8750008741    0.8316323395    0.6498538034
O330       O    0.8750014616    0.9183672776    0.6498526461
Cu331     Cu    0.8749998695    0.8749971165    0.5956122700
Cu332     Cu    0.8750016249    0.8750021987    0.6543891086
C333       C    0.8750005897    0.9311559305    0.6250005950
C334       C    0.8750009046    0.8188433847    0.6250007835
C335       C    0.8188464296    0.8749997389    0.6250007079
C336       C    0.9311550647    0.8749995762    0.6250006707
O337       O    0.3998520116    0.1683669956    0.1249994569
O338       O    0.3998509349    0.0816320575    0.1249988921
O339       O    0.3998499299    0.1249958567    0.0816307880
O340       O    0.3998530219    0.1250000346    0.1683707212
O341       O    0.3501479510    0.1250002903    0.1683715376
O342       O    0.3501449403    0.1249992722    0.0816347656
O343       O    0.3501458640    0.0816323132    0.1249997084
O344       O    0.3501469407    0.1683672514    0.1250002733
Cu345     Cu    0.4043873571    0.1249971406    0.1249987197
Cu346     Cu    0.3456105185    0.1250021682    0.1250004456
C347       C    0.3749989799    0.1811559273    0.1249994106
C348       C    0.3749988957    0.0688433815    0.1249997548
C349       C    0.3749989474    0.1249997211    0.0688452652
C350       C    0.3749989282    0.1249995878    0.1811539002
O351       O    0.3501461209    0.1249996290    0.8316325950
O352       O    0.3501471015    0.1250003133    0.9183675345
O353       O    0.3501482141    0.1683683570    0.8750036749
O354       O    0.3501450030    0.0816284251    0.8749996164
O355       O    0.3998500739    0.0816275405    0.8749994158
O356       O    0.3998532037    0.1683643112    0.8750003145
O357       O    0.3998521724    0.1249994287    0.9183673338
O358       O    0.3998511918    0.1249987444    0.8316323944
Cu359     Cu    0.3456107273    0.1250004321    0.8750024456
Cu360     Cu    0.4043875659    0.1249986256    0.8749974832
C361       C    0.3749991668    0.1249996236    0.8188436907
C362       C    0.3749991265    0.1249994341    0.9311562382
C363       C    0.3749992141    0.1811538455    0.8749998204
C364       C    0.3749990792    0.0688452122    0.8750001084
O365       O    0.3998524836    0.8316324563    0.8750004169
O366       O    0.3998512760    0.9183673944    0.8750010468
O367       O    0.3998502987    0.8750035627    0.9183691184
O368       O    0.3998534662    0.8749994498    0.8316291851
O369       O    0.3501483953    0.8749991191    0.8316283255
O370       O    0.3501453091    0.8750000723    0.9183650975
O371       O    0.3501462052    0.9183670637    0.8750001871
O372       O    0.3501474127    0.8316321256    0.8749995573
Cu373     Cu    0.4043877636    0.8750023181    0.8750011905
Cu374     Cu    0.3456109251    0.8749972019    0.8749994135
C375       C    0.3749994711    0.8188434871    0.8750004321
C376       C    0.3749992176    0.9311560329    0.8750001719
C377       C    0.3749993051    0.8749996513    0.9311546195
C378       C    0.3749993836    0.8749998687    0.8188459845
O379       O    0.3998521810    0.8316324024    0.1250000669
O380       O    0.3998510412    0.9183673406    0.1250006627
O381       O    0.3998500555    0.8750035259    0.1683687513
O382       O    0.3998531720    0.8749993790    0.0816288181
O383       O    0.3501481011    0.8749990871    0.0816279877
O384       O    0.3501450659    0.8750000743    0.1683647597
O385       O    0.3501459704    0.9183670487    0.1249998323
O386       O    0.3501471101    0.8316321106    0.1249992365
Cu387     Cu    0.4043874950    0.8750022607    0.1250008208
Cu388     Cu    0.3456106564    0.8749971904    0.1249990784
C389       C    0.3749991586    0.8188434527    0.1250001017
C390       C    0.3749989928    0.9311559985    0.1249997975
C391       C    0.3749990695    0.8749996389    0.1811542671
C392       C    0.3749990819    0.8749998123    0.0688456320
O393       O    0.8316326935    0.3998520575    0.1249991967
O394       O    0.9183676330    0.3998509879    0.1249984568
O395       O    0.8750037456    0.3998499254    0.0816304402
O396       O    0.8749997427    0.3998531252    0.1683703735
O397       O    0.8749994910    0.3501480550    0.1683712516
O398       O    0.8750003342    0.3501449366    0.0816344796
O399       O    0.9183673813    0.3501459177    0.1249993349
O400       O    0.8316324419    0.3501469873    0.1250000748
Cu401     Cu    0.8750025488    0.4043874064    0.1249983664
Cu402     Cu    0.8749975260    0.3456105687    0.1250001653
C403       C    0.8188437637    0.3749990251    0.1249992070
C404       C    0.9311563112    0.3749989501    0.1249993247
C405       C    0.8749998575    0.3749989275    0.0688449483
C406       C    0.8750002173    0.3749990477    0.1811535834
O407       O    0.8316326615    0.3501457632    0.8749995541
O408       O    0.9183676009    0.3501467638    0.8750002226
O409       O    0.8750037493    0.3501477943    0.9183682749
O410       O    0.8749996750    0.3501447274    0.8316283417
O411       O    0.8749994629    0.3998497975    0.8316275396
O412       O    0.8750003774    0.3998527832    0.9183643116
O413       O    0.9183673888    0.3998518339    0.8749994206
O414       O    0.8316324494    0.3998508333    0.8749987521
Cu415     Cu    0.8750025132    0.3456103797    0.8750003418
Cu416     Cu    0.8749975372    0.4043872174    0.8749986329
C417       C    0.8188437514    0.3749988057    0.8749995924
C418       C    0.9311562989    0.3749987914    0.8749993823
C419       C    0.8749998914    0.3749987727    0.9311538049
C420       C    0.8750001589    0.3749988244    0.8188451698
O421       O    0.1250004642    0.3501459744    0.1683665884
O422       O    0.1250011211    0.3501469060    0.0816316489
O423       O    0.1683691792    0.3501480184    0.1249954948
O424       O    0.0816292459    0.3501448567    0.1249995807
O425       O    0.0816283896    0.3998499269    0.1249997533
O426       O    0.1683651616    0.3998530072    0.1249988271
O427       O    0.1250002648    0.3998519761    0.0816318215
O428       O    0.1249996079    0.3998510445    0.1683667610
Cu429     Cu    0.1250012510    0.3456105564    0.1249967403
Cu430     Cu    0.1249994780    0.4043873941    0.1250016696
C431       C    0.1250004771    0.3749990271    0.1811554787
C432       C    0.1250002519    0.3749989234    0.0688429312
C433       C    0.1811546820    0.3749990107    0.1249993311
C434       C    0.0688460470    0.3749989398    0.1249990787
O435       O    0.1683678202    0.3998518547    0.8749994823
O436       O    0.0816328807    0.3998508351    0.8750000937
O437       O    0.1249967038    0.3998497746    0.9183681745
O438       O    0.1250008352    0.3998529205    0.8316282413
O439       O    0.1250010582    0.3501478504    0.8316273939
O440       O    0.1250000866    0.3501447857    0.9183641659
O441       O    0.0816331037    0.3501457650    0.8749992464
O442       O    0.1683680432    0.3501467846    0.8749986349
Cu443     Cu    0.1249979675    0.4043872287    0.8750002455
Cu444     Cu    0.1250029564    0.3456103910    0.8749984831
C445       C    0.1811567357    0.3749988150    0.8749995063
C446       C    0.0688441882    0.3749988047    0.8749992223
C447       C    0.1250005587    0.3749987845    0.9311536819
C448       C    0.1250003652    0.3749988351    0.8188450468
O449       O    0.6498524275    0.8316324064    0.1250005257
O450       O    0.6498513491    0.9183673445    0.1250011442
O451       O    0.6498503552    0.8750035185    0.1683692215
O452       O    0.6498534266    0.8749993943    0.0816292882
O453       O    0.6001483557    0.8749991375    0.0816284837
O454       O    0.6001453656    0.8750001020    0.1683652557
O455       O    0.6001462782    0.9183670878    0.1250003397
O456       O    0.6001473566    0.8316321496    0.1249997211
Cu457     Cu    0.6543877721    0.8750022614    0.1250012886
Cu458     Cu    0.5956109335    0.8749972327    0.1249995767
C459       C    0.6249993960    0.8188434742    0.1250005700
C460       C    0.6249993096    0.9311560200    0.1250002953
C461       C    0.6249993758    0.8749996457    0.1811547502
C462       C    0.6249993298    0.8749998485    0.0688461151
O463       O    0.6498527427    0.8316325661    0.8750006090
O464       O    0.6498515567    0.9183675042    0.8750012052
O465       O    0.6498505383    0.8750036894    0.9183692937
O466       O    0.6498537663    0.8749995428    0.8316293604
O467       O    0.6001486955    0.8749992244    0.8316284661
O468       O    0.6001455487    0.8750002113    0.9183652381
O469       O    0.6001464858    0.9183671859    0.8750003109
O470       O    0.6001476718    0.8316322477    0.8749997147
Cu471     Cu    0.6543880336    0.8750024268    0.8750013690
Cu472     Cu    0.5956111950    0.8749973252    0.8749995510
C473       C    0.6249997271    0.8188436031    0.8750006118
C474       C    0.6249995014    0.9311561489    0.8750003081
C475       C    0.6249995359    0.8749997890    0.9311547775
C476       C    0.6249996927    0.8749999629    0.8188461424
O477       O    0.6001462667    0.1249996393    0.8316324857
O478       O    0.6001472101    0.1250003339    0.9183674251
O479       O    0.6001482834    0.1683683725    0.8750035604
O480       O    0.6001451880    0.0816284405    0.8749995122
O481       O    0.6498502589    0.0816276222    0.8749993328
O482       O    0.6498532730    0.1683643929    0.8750002213
O483       O    0.6498522810    0.1249995156    0.9183672457
O484       O    0.6498513376    0.1249988210    0.8316323063
Cu485     Cu    0.5956108545    0.1250004415    0.8750023343
Cu486     Cu    0.6543876931    0.1249987134    0.8749973971
C487       C    0.6249993180    0.1249996656    0.8188435919
C488       C    0.6249992296    0.1249994893    0.9311561394
C489       C    0.6249992664    0.1811538941    0.8749997151
C490       C    0.6249992813    0.0688452608    0.8750000163
O491       O    0.6001460678    0.1249996849    0.0816326444
O492       O    0.6001471112    0.1250004289    0.1683675839
O493       O    0.6001481253    0.1683684428    0.1250036944
O494       O    0.6001450484    0.0816285108    0.1249996957
O495       O    0.6498501193    0.0816277031    0.1249994591
O496       O    0.6498531149    0.1683644738    0.1250002981
O497       O    0.6498521821    0.1249996212    0.1683673472
O498       O    0.6498511387    0.1249988772    0.0816324078
Cu499     Cu    0.5956107056    0.1250005109    0.1250024983
Cu500     Cu    0.6543875442    0.1249987953    0.1249974933
C501       C    0.6249991044    0.1249997092    0.0688437221
C502       C    0.6249991454    0.1249995969    0.1811562696
C503       C    0.6249991055    0.1811539698    0.1249998132
C504       C    0.6249991444    0.0688453364    0.1250001785
O505       O    0.1250009257    0.6498521254    0.1683683240
O506       O    0.1250002588    0.6498511217    0.0816333845
O507       O    0.0816322057    0.6498500570    0.1249972353
O508       O    0.1683721390    0.6498531954    0.1250013113
O509       O    0.1683729819    0.6001481252    0.1250015252
O510       O    0.0816362099    0.6001450682    0.1250006089
O511       O    0.1250011018    0.6001460516    0.0816335984
O512       O    0.1250017686    0.6001470552    0.1683685378
Cu513     Cu    0.1250001351    0.6543875073    0.1249984721
Cu514     Cu    0.1250018924    0.5956106696    0.1250034502
C515       C    0.1250009076    0.6249990833    0.1811572349
C516       C    0.1250011199    0.6249990937    0.0688446874
C517       C    0.0688466962    0.6249990681    0.1250010938
C518       C    0.1811553313    0.6249991088    0.1250008285
O519       O    0.1250015332    0.6498521826    0.8316334927
O520       O    0.1250023587    0.6498511485    0.9183684322
O521       O    0.1683703325    0.6498501162    0.8750045020
O522       O    0.0816303992    0.6498532202    0.8750005848
O523       O    0.0816295759    0.6001481501    0.8750003534
O524       O    0.1683663479    0.6001451273    0.8750011110
O525       O    0.1250015354    0.6001460784    0.9183682009
O526       O    0.1250007099    0.6001471125    0.8316332614
Cu527     Cu    0.1250024013    0.6543875494    0.8750033461
Cu528     Cu    0.1250006672    0.5956107117    0.8749983475
C529       C    0.1250015377    0.6249991450    0.8188445730
C530       C    0.1250015309    0.6249991160    0.9311571206
C531       C    0.1811558518    0.6249991324    0.8750006114
C532       C    0.0688472167    0.6249991287    0.8750010822
O533       O    0.8316355322    0.6001461639    0.8750022225
O534       O    0.9183704717    0.6001471478    0.8750029125
O535       O    0.8750066093    0.6001481992    0.9183709540
O536       O    0.8750025565    0.6001451072    0.8316310208
O537       O    0.8750023539    0.6498501774    0.8316302044
O538       O    0.8750032469    0.6498531880    0.9183669764
O539       O    0.9183702691    0.6498522180    0.8750020961
O540       O    0.8316353296    0.6498512340    0.8750014061
Cu541     Cu    0.8750053830    0.5956107721    0.8750030222
Cu542     Cu    0.8750004183    0.6543876098    0.8750012964
C543       C    0.8188466269    0.6249992089    0.8750022504
C544       C    0.9311591744    0.6249991729    0.8750020682
C545       C    0.8750027530    0.6249991812    0.9311564768
C546       C    0.8750030484    0.6249992006    0.8188478418
O547       O    0.8316337938    0.6001461381    0.1250011110
O548       O    0.9183687332    0.6001471029    0.1250019679
O549       O    0.8750047874    0.6001481684    0.1683699260
O550       O    0.8750009015    0.6001450673    0.0816299927
O551       O    0.8750007099    0.6498501374    0.0816291711
O552       O    0.8750014361    0.6498531573    0.1683659431
O553       O    0.9183685416    0.6498521730    0.1250011463
O554       O    0.8316336022    0.6498512082    0.1250002894
Cu555     Cu    0.8750036436    0.5956107367    0.1250019947
Cu556     Cu    0.8749986918    0.6543875744    0.1250002626
C557       C    0.8188448939    0.6249991859    0.1250011118
C558       C    0.9311574414    0.6249991252    0.1250011455
C559       C    0.8750009120    0.6249991518    0.1811554462
C560       C    0.8750014234    0.6249991593    0.0688468111
O561       O    0.3749995358    0.4183666381    0.1498525094
O562       O    0.3750001470    0.3316317000    0.1498514105
O563       O    0.4183682279    0.3749955224    0.1498504469
O564       O    0.3316282947    0.3749996539    0.1498534783
O565       O    0.3316275130    0.3749999223    0.1001484074
O566       O    0.4183642850    0.3749989505    0.1001454573
O567       O    0.3749993654    0.3316319684    0.1001463396
O568       O    0.3749987541    0.4183669066    0.1001474385
Cu569     Cu    0.3750002930    0.3749967820    0.1543878438
Cu570     Cu    0.3749986082    0.3750018245    0.0956110052
C571       C    0.3749995927    0.4311555762    0.1249994809
C572       C    0.3749993085    0.3188430303    0.1249993681
C573       C    0.4311537681    0.3749993999    0.1249994734
C574       C    0.3188451330    0.3749992066    0.1249993756
O575       O    0.3749997610    0.5816320030    0.1001469982
O576       O    0.3750003513    0.6683669412    0.1001481010
O577       O    0.4183684427    0.6250031292    0.1001490444
O578       O    0.3316285094    0.6249989768    0.1001460496
O579       O    0.3316277488    0.6249987061    0.1498511205
O580       O    0.4183645208    0.6249996988    0.1498540340
O581       O    0.3749995907    0.6683666705    0.1498531719
O582       O    0.3749990003    0.5816317323    0.1498520691
Cu583     Cu    0.3750005058    0.6250018594    0.0956116658
Cu584     Cu    0.3749988458    0.6249968141    0.1543885043
C585       C    0.3749998315    0.5688430638    0.1250000261
C586       C    0.3749995202    0.6811556097    0.1250001440
C587       C    0.4311539934    0.6249992536    0.1250000125
C588       C    0.3188453583    0.6249994199    0.1250001576
O589       O    0.6683668181    0.6249992150    0.1498534466
O590       O    0.5816318787    0.6249985994    0.1498522539
O591       O    0.6249957039    0.5816305213    0.1498512307
O592       O    0.6249998311    0.6683704532    0.1498544751
O593       O    0.6250001533    0.6683713569    0.1001494042
O594       O    0.6249991859    0.5816345862    0.1001462411
O595       O    0.5816322009    0.6249995031    0.1001471830
O596       O    0.6683671404    0.6250001187    0.1001483757
Cu597     Cu    0.6249969564    0.6249984444    0.1543887341
Cu598     Cu    0.6250020626    0.6250002736    0.0956118955
C599       C    0.6811557833    0.6249992197    0.1250004320
C600       C    0.5688432358    0.6249994983    0.1250001976
C601       C    0.6249996090    0.5688450423    0.1250002258
C602       C    0.6249994100    0.6811536757    0.1250004038
O603       O    0.5816318112    0.3749992658    0.1001466125
O604       O    0.6683667507    0.3749985587    0.1001475967
O605       O    0.6250028797    0.3316305263    0.1001486278
O606       O    0.6249988440    0.4183704583    0.1001455762
O607       O    0.6249986413    0.4183712515    0.1498506471
O608       O    0.6249995173    0.3316344808    0.1498536174
O609       O    0.6683665480    0.3749993519    0.1498526676
O610       O    0.5816316085    0.3750000590    0.1498516834
Cu611     Cu    0.6250016620    0.3749984596    0.0956112208
Cu612     Cu    0.6249966972    0.3750001581    0.1543880594
C613       C    0.5688429059    0.3749992288    0.1249996579
C614       C    0.6811554534    0.3749993889    0.1249996223
C615       C    0.6249990209    0.3188449921    0.1249996043
C616       C    0.6249993383    0.4311536255    0.1249996759
O617       O    0.3750001417    0.6683665947    0.8501472854
O618       O    0.3749995613    0.5816316566    0.8501482007
O619       O    0.3316314650    0.6249954635    0.8501493137
O620       O    0.4183713983    0.6249996259    0.8501461671
O621       O    0.4183722459    0.6249997892    0.8998512380
O622       O    0.3316354739    0.6249987865    0.8998543033
O623       O    0.3750004090    0.5816318198    0.8998532716
O624       O    0.3750009894    0.6683667580    0.8998523562
Cu625     Cu    0.3749993939    0.6249967482    0.8456118592
Cu626     Cu    0.3750011568    0.6250016664    0.9043886978
C627       C    0.3750001133    0.6811554802    0.8750003409
C628       C    0.3750004375    0.5688429344    0.8750002161
C629       C    0.3188459578    0.6249992840    0.8750003042
C630       C    0.4311545929    0.6249991306    0.8750002528
O631       O    0.6683677323    0.6249994098    0.8501477397
O632       O    0.5816327928    0.6250000634    0.8501484251
O633       O    0.6249966370    0.6683681225    0.8501496918
O634       O    0.6250007263    0.5816281905    0.8501464677
O635       O    0.6250007578    0.5816272985    0.8998515386
O636       O    0.6249998282    0.6683640692    0.8998546814
O637       O    0.5816328243    0.6249991713    0.8998534960
O638       O    0.6683677638    0.6249985178    0.8998528105
Cu639     Cu    0.6249978971    0.6250001982    0.8456121985
Cu640     Cu    0.6250026595    0.6249983829    0.9043890371
C641       C    0.6811565521    0.6249994053    0.8750008291
C642       C    0.5688440046    0.6249991758    0.8750004066
C643       C    0.6250004023    0.6811536073    0.8750006937
C644       C    0.6250001543    0.5688449739    0.8750005420
O645       O    0.6683668955    0.3749989551    0.8501467210
O646       O    0.5816319561    0.3749996925    0.8501477776
O647       O    0.6249958422    0.4183677097    0.8501488653
O648       O    0.6249998476    0.3316277777    0.8501456280
O649       O    0.6250000918    0.3316268780    0.8998506989
O650       O    0.6249992462    0.4183636487    0.8998538549
O651       O    0.5816322004    0.3749987928    0.8998528485
O652       O    0.6683671398    0.3749980554    0.8998517919
Cu653     Cu    0.6249970410    0.3749997861    0.8456113654
Cu654     Cu    0.6250020549    0.3749979617    0.9043882040
C655       C    0.6811558217    0.3749989343    0.8749997556
C656       C    0.5688432742    0.3749988135    0.8749998138
C657       C    0.6249997263    0.4311531906    0.8749998692
C658       C    0.6249993696    0.3188445572    0.8749997003
O659       O    0.3750000593    0.4183661883    0.8998528150
O660       O    0.3750006133    0.3316312501    0.8998517488
O661       O    0.4183687229    0.3749950439    0.8998507675
O662       O    0.3316287896    0.3749992327    0.8998538015
O663       O    0.3316280065    0.3749994824    0.8501487306
O664       O    0.4183647785    0.3749984533    0.8501457779
O665       O    0.3749998302    0.3316314998    0.8501466779
O666       O    0.3749992762    0.4183664380    0.8501477441
Cu667     Cu    0.3750007880    0.3749963338    0.9043881657
Cu668     Cu    0.3749991015    0.3750013543    0.8456113272
C669       C    0.3750001240    0.4311551170    0.8749997817
C670       C    0.3749997656    0.3188425711    0.8749997112
C671       C    0.4311542623    0.3749989037    0.8749997937
C672       C    0.3188456272    0.3749987845    0.8749996992
C1623      C    0.5172094067    0.3944447658    0.8975940825
C1624      C    0.5344208346    0.3749988360    0.8749998088
C1625      C    0.5172101961    0.3555529288    0.8524055300
C1626      C    0.4827881298    0.3555529514    0.8524055250
C1627      C    0.4655767019    0.3749988811    0.8749997987
C1628      C    0.4827873404    0.3944447883    0.8975940775
H1629      H    0.5299497495    0.4088397880    0.9143197175
H1630      H    0.5299494892    0.3411585053    0.8356806138
H1631      H    0.4700477871    0.3411579292    0.8356798900
H1632      H    0.4700480473    0.4088392118    0.9143189937
C1613      C    0.6526909216    0.5172095710    0.8860392023
C1614      C    0.6250000473    0.5344211481    0.8750003738
C1615      C    0.5973090659    0.5172106593    0.8639613771
C1616      C    0.5973089589    0.4827885935    0.8639612089
C1617      C    0.6249998333    0.4655770164    0.8750000374
C1618      C    0.6526908146    0.4827875052    0.8860390341
H1619      H    0.6731894403    0.5299498029    0.8942109271
H1620      H    0.5768115028    0.5299500628    0.8557901261
H1621      H    0.5768104403    0.4700483615    0.8557894841
H1622      H    0.6731883778    0.4700481017    0.8942102851
C1603      C    0.4827886678    0.5969014364    0.8849584067
C1604      C    0.4655772324    0.6249991419    0.8750002912
C1605      C    0.4827878633    0.6530968587    0.8650422142
C1606      C    0.5172099297    0.6530968700    0.8650422527
C1607      C    0.5344213651    0.6249991645    0.8750003681
C1608      C    0.5172107342    0.5969014477    0.8849584451
H1609      H    0.4700483306    0.5761018278    0.8923299702
H1610      H    0.4700485647    0.6738955697    0.8576709374
H1611      H    0.5299502668    0.6738964786    0.8576706892
H1612      H    0.5299500328    0.5761027367    0.8923297220
C1593      C    0.3587817751    0.5172097703    0.8499879785
C1594      C    0.3750003591    0.5344210915    0.8750001075
C1595      C    0.3912188647    0.5172103469    0.9000121279
C1596      C    0.3912187864    0.4827882811    0.9000120193
C1597      C    0.3750002023    0.4655769598    0.8749998903
C1598      C    0.3587816967    0.4827877045    0.8499878699
H1599      H    0.3467758683    0.5299501916    0.8314725868
H1600      H    0.4032243162    0.5299495610    0.9185268084
H1601      H    0.4032246931    0.4700478597    0.9185274110
H1602      H    0.3467762452    0.4700484903    0.8314731894
C1583      C    0.6515571094    0.5172099646    0.1114597515
C1584      C    0.6249995413    0.5344213997    0.1250000883
C1585      C    0.5984419056    0.5172107691    0.1385402877
C1586      C    0.5984418380    0.4827887033    0.1385401502
C1587      C    0.6249994060    0.4655772681    0.1249998134
C1588      C    0.6515570417    0.4827878987    0.1114596140
H1589      H    0.6712166579    0.5299503015    0.1014364870
H1590      H    0.5787832477    0.5299500676    0.1485632254
H1591      H    0.5787822895    0.4700483663    0.1485634147
H1592      H    0.6712156996    0.4700486002    0.1014366763
C1573      C    0.4827879203    0.6517462688    0.1381624199
C1574      C    0.4655765482    0.6249993148    0.1250000587
C1575      C    0.4827872425    0.5982524219    0.1118377439
C1576      C    0.5172093088    0.5982524831    0.1118377902
C1577      C    0.5344206809    0.6249994371    0.1250001513
C1578      C    0.5172099866    0.6517463300    0.1381624662
H1579      H    0.4700475362    0.6715459168    0.1479059516
H1580      H    0.4700479907    0.5784535751    0.1020945944
H1581      H    0.5299496929    0.5784528351    0.1020942584
H1582      H    0.5299492384    0.6715451768    0.1479056156
C1563      C    0.4827876535    0.3553730983    0.1474373649
C1564      C    0.4655762706    0.3749993571    0.1249995195
C1565      C    0.4827869541    0.3946255731    0.1025617203
C1566      C    0.5172090205    0.3946255304    0.1025617664
C1567      C    0.5344204033    0.3749992716    0.1249996118
C1568      C    0.5172097198    0.3553730556    0.1474374110
H1569      H    0.4700472774    0.3408446008    0.1640471644
H1570      H    0.4700476944    0.4091534813    0.0859525967
H1571      H    0.5299493966    0.4091540279    0.0859519669
H1572      H    0.5299489796    0.3408451474    0.1640465345
C1553      C    0.3510942781    0.4827886622    0.1428091415
C1554      C    0.3749996524    0.4655772542    0.1249996172
C1555      C    0.3989050864    0.4827879120    0.1071902292
C1556      C    0.3989051461    0.5172099778    0.1071903655
C1557      C    0.3749997718    0.5344213858    0.1249998898
C1558      C    0.3510943378    0.5172107280    0.1428092778
H1559      H    0.3333980477    0.4700483051    0.1559927145
H1560      H    0.4166005160    0.4700486336    0.0940071190
H1561      H    0.4166013764    0.5299503349    0.0940067925
H1562      H    0.3333989081    0.5299500064    0.1559923881
C1543      C    0.7327898510    0.6180478707    0.0960123445
C1544      C    0.7155782723    0.6249992113    0.1250006020
C1545      C    0.7327887599    0.6319505434    0.1539890294
C1546      C    0.7672108262    0.6319505350    0.1539891993
C1547      C    0.7844224049    0.6249991944    0.1250009418
C1548      C    0.7672119173    0.6180478622    0.0960125144
H1549      H    0.7200496199    0.6129020793    0.0745533787
H1550      H    0.7200493552    0.6370961211    0.1754469519
H1551      H    0.7799510573    0.6370963264    0.1754481650
H1552      H    0.7799513221    0.6129022846    0.0745545919
C1533      C    0.7672125181    0.6211203289    0.8454450127
C1534      C    0.7844236558    0.6249992580    0.8750018951
C1535      C    0.7672127272    0.6288782362    0.9045584221
C1536      C    0.7327906609    0.6288782853    0.9045580668
C1537      C    0.7155795232    0.6249993562    0.8750011844
C1538      C    0.7327904518    0.6211203780    0.8454446573
H1539      H    0.7799530756    0.6182488775    0.8235655056
H1540      H    0.7799518055    0.6317495285    0.9264372568
H1541      H    0.7200501033    0.6317497367    0.9264375739
H1542      H    0.7200513735    0.6182490857    0.8235658226
C1523      C    0.9048115174    0.6247691397    0.9827913028
C1524      C    0.8750024206    0.6249991758    0.9655795776
C1525      C    0.8451929914    0.6252292063    0.9827899189
C1526      C    0.8451926590    0.6252292009    1.0172119852
C1527      C    0.8750017558    0.6249991648    1.0344237103
C1528      C    0.9048111850    0.6247691342    1.0172133691
H1529      H    0.9268782377    0.6245988573    0.9700511800
H1530      H    0.8231274605    0.6253994855    0.9700504057
H1531      H    0.8231259387    0.6253994832    1.0299521079
H1532      H    0.9268767159    0.6245988550    1.0299528822
C1513      C    0.0172140362    0.6221997363    0.9046798681
C1514      C    0.0344252619    0.6249991397    0.8750013287
C1515      C    0.0172144213    0.6277985543    0.8453230358
C1516      C   -0.0172076451    0.6277985653    0.8453232823
C1517      C   -0.0344188708    0.6249991619    0.8750018217
C1518      C   -0.0172080301    0.6221997473    0.9046801146
H1519      H    0.0299545287    0.6201274424    0.9266495135
H1520      H    0.0299535647    0.6298707514    0.8233541472
H1521      H   -0.0299481375    0.6298708592    0.8233536369
H1522      H   -0.0299471735    0.6201275502    0.9266490032
C1503      C    0.2327902019    0.6404997993    0.8495372648
C1504      C    0.2155788385    0.6249991703    0.8750005346
C1505      C    0.2327895414    0.6094985791    0.9004637276
C1506      C    0.2672116077    0.6094986170    0.9004636508
C1507      C    0.2844229712    0.6249992461    0.8750003810
C1508      C    0.2672122683    0.6404998372    0.8495371880
H1509      H    0.2200498115    0.6519742629    0.8306878881
H1510      H    0.2200502960    0.5980245780    0.9193123553
H1511      H    0.2799519982    0.5980241534    0.9193130275
H1512      H    0.2799515136    0.6519738384    0.8306885603
C1493      C    0.1547711432    0.6234499210    0.0172116216
C1494      C    0.1250012226    0.6249990993    0.0344229703
C1495      C    0.0952314048    0.6265482831    0.0172122527
C1496      C    0.0952315075    0.6265482887   -0.0172098137
C1497      C    0.1250014281    0.6249991104   -0.0344211624
C1498      C    0.1547712460    0.6234499266   -0.0172104447
H1499      H    0.1768085409    0.6223031226    0.0299520230
H1500      H    0.0731948732    0.6276950284    0.0299514871
H1501      H    0.0731941099    0.6276950871   -0.0299502150
H1502      H    0.1768077776    0.6223031813   -0.0299496792
C1483      C    0.2327895567    0.6405052722    0.0995406558
C1484      C    0.2155782784    0.6249991866    0.1250006608
C1485      C    0.2327890665    0.6094931788    0.1504604981
C1486      C    0.2672111329    0.6094932566    0.1504603304
C1487      C    0.2844224111    0.6249993421    0.1250003254
C1488      C    0.2672116230    0.6405053499    0.0995404880
H1489      H    0.2200491031    0.6519837455    0.0806937632
H1490      H    0.2200498842    0.5980151387    0.1693067091
H1491      H    0.2799515864    0.5980147833    0.1693072229
H1492      H    0.2799508053    0.6519833901    0.0806942771
C1473      C    0.0172126814    0.6000009400    0.1087611139
C1474      C    0.0344241352    0.6249990824    0.1250011068
C1475      C    0.0172135226    0.6499972391    0.1412411126
C1476      C   -0.0172085438    0.6499972533    0.1412411255
C1477      C   -0.0344199975    0.6249991109    0.1250011326
C1478      C   -0.0172093849    0.6000009543    0.1087611268
H1479      H    0.0299530050    0.5814958110    0.0967392914
H1480      H    0.0299528348    0.6685015663    0.1532624115
H1481      H   -0.0299488673    0.6685023823    0.1532629480
H1482      H   -0.0299486972    0.5814966270    0.0967398279
C1463      C    0.6426727086    0.2327888995    0.1490057280
C1464      C    0.6249990843    0.2155774151    0.1249997609
C1465      C    0.6073254389    0.2327879966    0.1009937416
C1466      C    0.6073254178    0.2672100624    0.1009936894
C1467      C    0.6249990420    0.2844215468    0.1249996565
C1468      C    0.6426726874    0.2672109653    0.1490056758
H1469      H    0.6557557967    0.2200485989    0.1667764176
H1470      H    0.5942429258    0.2200486617    0.0832238504
H1471      H    0.5942423296    0.2799503630    0.0832229998
H1472      H    0.6557552006    0.2799503001    0.1667755670
C1453      C    0.6244516450    0.1548046930    0.9827892536
C1454      C    0.6249991983    0.1249995442    0.9655778644
C1455      C    0.6255467204    0.0951944505    0.9827885416
C1456      C    0.6255466891    0.0951945055    1.0172106079
C1457      C    0.6249991357    0.1249996542    1.0344219971
C1458      C    0.6244516137    0.1548047480    1.0172113200
H1459      H    0.6240463364    0.1768682039    0.9700488822
H1460      H    0.6259520347    0.0731318421    0.9700492771
H1461      H    0.6259519976    0.0731309945    1.0299509793
H1462      H    0.6240462993    0.1768673564    1.0299505844
C1443      C    0.6538670872    0.2327885761    0.8824358533
C1444      C    0.6249992922    0.2155771599    0.8749997114
C1445      C    0.5961315230    0.2327878095    0.8675635658
C1446      C    0.5961315488    0.2672098753    0.8675635621
C1447      C    0.6249993438    0.2844212915    0.8749997040
C1448      C    0.6538671130    0.2672106419    0.8824358496
H1449      H    0.6752367345    0.2200482251    0.8879405325
H1450      H    0.5747627701    0.2200485250    0.8620591247
H1451      H    0.5747619015    0.2799502263    0.8620588829
H1452      H    0.6752358658    0.2799499263    0.8879402907
C1433      C    0.6242286421    0.9827901380    0.9048003829
C1434      C    0.6249994464    0.9655786390    0.8750002352
C1435      C    0.6257701957    0.9827892058    0.8452000145
C1436      C    0.6257701406    1.0172112717    0.8451999415
C1437      C    0.6249993363    1.0344227706    0.8750000893
C1438      C    0.6242285871    1.0172122038    0.9048003100
H1439      H    0.6236580875    0.9700498482    0.9268602866
H1440      H    0.6263407666    0.9700498601    0.8231411079
H1441      H    0.6263406952    1.0299515614    0.8231400379
H1442      H    0.6236580161    1.0299515495    0.9268592165
C1423      C    0.6534597142    0.7672093682    0.8661299816
C1424      C    0.6249998959    0.7844206710    0.8750006323
C1425      C    0.5965402464    0.7672099079    0.8838713034
C1426      C    0.5965404152    0.7327878421    0.8838713239
C1427      C    0.6250002335    0.7155765393    0.8750006732
C1428      C    0.6534598830    0.7327873024    0.8661300021
H1429      H    0.6745272469    0.7799498032    0.8595633810
H1430      H    0.5754734894    0.7799491084    0.8904376082
H1431      H    0.5754728825    0.7200474071    0.8904379245
H1432      H    0.6745266400    0.7200481020    0.8595636973
C1413      C    0.5952780863    0.9827900157    0.1273019121
C1414      C    0.6249992683    0.9655786124    0.1250002661
C1415      C    0.6547204091    0.9827892748    0.1226985909
C1416      C    0.6547203678    1.0172113407    0.1226985617
C1417      C    0.6249991857    1.0344227440    0.1250002077
C1418      C    0.5952780450    1.0172120815    0.1273018829
H1419      H    0.5732767223    0.9700496552    0.1290057496
H1420      H    0.6767208630    0.9700499999    0.1209948479
H1421      H    0.6767217317    1.0299517012    0.1209947242
H1422      H    0.5732775910    1.0299513564    0.1290056259
C1403      C    0.6261096645    0.8452103586    0.0172110899
C1404      C    0.6249993813    0.8749998336    0.0344225127
C1405      C    0.6238891497    0.9047892938    0.0172118691
C1406      C    0.6238892012    0.9047892789   -0.0172101972
C1407      C    0.6249994844    0.8749998039   -0.0344216200
C1408      C    0.6261097160    0.8452103438   -0.0172109765
H1409      H    0.6269315243    0.8231584206    0.0299514364
H1410      H    0.6230672869    0.9268403001    0.0299511584
H1411      H    0.6230673414    0.9268412169   -0.0299505437
H1412      H    0.6269315788    0.8231593375   -0.0299502658
C1393      C    0.6081717103    0.7672092317    0.1003941286
C1394      C    0.6249993995    0.7844206408    0.1250005285
C1395      C    0.6418270922    0.7672099840    0.1496068869
C1396      C    0.6418270957    0.7327879182    0.1496068453
C1397      C    0.6249994065    0.7155765091    0.1250004454
C1398      C    0.6081717138    0.7327871659    0.1003940870
H1399      H    0.5957148469    0.7799495880    0.0821790321
H1400      H    0.6542834205    0.7799492631    0.1678212353
H1401      H    0.6542839591    0.7200475619    0.1678219418
H1402      H    0.5957153856    0.7200478867    0.0821797385
C1383      C    0.2327905106    0.3746073722    0.9048071592
C1384      C    0.2155791151    0.3749988073    0.8749995545
C1385      C    0.2327897860    0.3753902349    0.8451919981
C1386      C    0.2672118524    0.3753902272    0.8451920463
C1387      C    0.2844232478    0.3749987921    0.8749996510
C1388      C    0.2672125769    0.3746073646    0.9048072074
H1389      H    0.2200501438    0.3743176141    0.9268724932
H1390      H    0.2200505169    0.3756799861    0.8231275717
H1391      H    0.2799522191    0.3756799853    0.8231267124
H1392      H    0.2799518460    0.3743176133    0.9268716338
C1373      C    0.1547045793    0.3724879256    0.0172090043
C1374      C    0.1250003286    0.3749988887    0.0344203729
C1375      C    0.0952961547    0.3775098170    0.0172096751
C1376      C    0.0952962314    0.3775097823   -0.0172123912
C1377      C    0.1250004820    0.3749988193   -0.0344237598
C1378      C    0.1547046560    0.3724878909   -0.0172130621
H1379      H    0.1766933834    0.3706291865    0.0299493909
H1380      H    0.0733082339    0.3793685024    0.0299489243
H1381      H    0.0733074273    0.3793685215   -0.0299527779
H1382      H    0.1766925768    0.3706292055   -0.0299523113
C1363      C    0.2327892910    0.3603520178    0.1509629477
C1364      C    0.2155778412    0.3749990597    0.1249993423
C1365      C    0.2327884578    0.3896461505    0.0990357480
C1366      C    0.2672105241    0.3896461995    0.0990357591
C1367      C    0.2844219739    0.3749991576    0.1249993645
C1368      C    0.2672113573    0.3603520668    0.1509629588
H1369      H    0.2200489644    0.3495093661    0.1701827512
H1370      H    0.2200491485    0.4004883024    0.0798167579
H1371      H    0.2799508507    0.4004888512    0.0798159555
H1372      H    0.2799506666    0.3495099149    0.1701819489
C1353      C    0.9827895799    0.3748199114    0.8451897085
C1354      C    0.9655781772    0.3749987947    0.8749993423
C1355      C    0.9827888409    0.3751776813    0.9048089362
C1356      C    1.0172109072    0.3751776847    0.9048088962
C1357      C    1.0344223099    0.3749988014    0.8749992623
C1358      C    1.0172116462    0.3748199148    0.8451896685
H1359      H    0.9700492185    0.3746874888    0.8231228663
H1360      H    0.9700495664    0.3753100957    0.9268748646
H1361      H    1.0299512686    0.3753101072    0.9268757383
H1362      H    1.0299509207    0.3746875003    0.8231237401
C1343      C    0.7672103973    0.3461128191    0.8823645734
C1344      C    0.7844218529    0.3749988379    0.8749996332
C1345      C    0.7672112421    0.4038848888    0.8676347338
C1346      C    0.7327891758    0.4038849209    0.8676347746
C1347      C    0.7155777202    0.3749989022    0.8749997148
C1348      C    0.7327883310    0.3461128513    0.8823646142
H1349      H    0.7799507196    0.3247296386    0.8878165120
H1350      H    0.7799505557    0.4252671314    0.8621829981
H1351      H    0.7200488535    0.4252681015    0.8621828361
H1352      H    0.7200490174    0.3247306087    0.8878163499
C1333      C    0.9827905965    0.3614872848    0.1515713997
C1334      C    0.9655791127    0.3749989475    0.1249992632
C1335      C    0.9827896953    0.3885106077    0.0984270651
C1336      C    1.0172117616    0.3885106052    0.0984270037
C1337      C    1.0344232454    0.3749989424    0.1249991402
C1338      C    1.0172126628    0.3614872822    0.1515713383
H1339      H    0.9700502951    0.3514851467    0.1712417282
H1340      H    0.9700503609    0.3985123201    0.0787576232
H1341      H    1.0299520630    0.3985127432    0.0787566752
H1342      H    1.0299519973    0.3514855698    0.1712407802
C1323      C    0.8964804276    0.3956684296    0.0172099877
C1324      C    0.8749998660    0.3749988888    0.0344214429
C1325      C    0.8535193128    0.3543293093    0.0172108319
C1326      C    0.8535193213    0.3543292706   -0.0172112345
C1327      C    0.8749998829    0.3749988114   -0.0344226897
C1328      C    0.8964804361    0.3956683909   -0.0172120787
H1329      H    0.9123816163    0.4109692871    0.0299503101
H1330      H    0.8376187976    0.3390291345    0.0299501452
H1331      H    0.8376181325    0.3390284130   -0.0299515570
H1332      H    0.9123809513    0.4109685656   -0.0299513920
C1313      C    0.7672103549    0.3985423938    0.1432849109
C1314      C    0.7844216748    0.3749991160    0.1249993108
C1315      C    0.7672109285    0.3514559292    0.1067138145
C1316      C    0.7327888621    0.3514560202    0.1067139183
C1317      C    0.7155775422    0.3749992979    0.1249995184
C1318      C    0.7327882886    0.3985424847    0.1432850147
H1319      H    0.7799507775    0.4159704671    0.1568209277
H1320      H    0.7799501416    0.3340285336    0.0931782996
H1321      H    0.7200484395    0.3340279468    0.0931779016
H1322      H    0.7200490754    0.4159698804    0.1568205296
C1303      C    0.4031922231    0.7672102370    0.1346853555
C1304      C    0.3749992490    0.7844215970    0.1250001123
C1305      C    0.3468063652    0.7672108912    0.1153148797
C1306      C    0.3468064556    0.7327888254    0.1153148902
C1307      C    0.3749994298    0.7155774653    0.1250001334
C1308      C    0.4031923135    0.7327881711    0.1346853661
H1309      H    0.4240622799    0.7799506296    0.1418549433
H1310      H    0.3259371337    0.7799501341    0.1081455906
H1311      H    0.3259363988    0.7200484328    0.1081453025
H1312      H    0.4240615450    0.7200489283    0.1418546552
C1293      C    0.3784740063    0.8453927712    0.9827895370
C1294      C    0.3749992493    0.8749996915    0.9655780595
C1295      C    0.3715244365    0.9046066520    0.9827886482
C1296      C    0.3715243807    0.9046066923    1.0172107146
C1297      C    0.3749991377    0.8749997720    1.0344221921
C1298      C    0.3784739505    0.8453928115    1.0172116034
H1299      H    0.3810462703    0.8234759303    0.9700492310
H1300      H    0.3689523237    0.9265225262    0.9700493184
H1301      H    0.3689521166    0.9265235332    1.0299510205
H1302      H    0.3810460633    0.8234769373    1.0299509332
C1283      C    0.3456266166    0.7672099720    0.8800862945
C1284      C    0.3749996317    0.7844215494    0.8750004093
C1285      C    0.4043728073    0.7672110610    0.8699145012
C1286      C    0.4043729678    0.7327889952    0.8699144784
C1287      C    0.3749999527    0.7155774178    0.8750003637
C1288      C    0.3456267771    0.7327879062    0.8800862717
H1289      H    0.3238828372    0.7799502037    0.8838511875
H1290      H    0.4261155383    0.7799504648    0.8661497861
H1291      H    0.4261167472    0.7200487635    0.8661495855
H1292      H    0.3238840461    0.7200485025    0.8838509868
C1273      C    0.3970338106    0.0172112827    0.8950779303
C1274      C    0.3749991138    0.0344226883    0.8750001243
C1275      C    0.3529644515    0.0172120282    0.8549223342
C1276      C    0.3529644861   -0.0172100377    0.8549223501
C1277      C    0.3749991830   -0.0344214433    0.8750001560
C1278      C    0.3970338452   -0.0172107831    0.8950779461
H1279      H    0.4133451840    0.0299516415    0.9099407099
H1280      H    0.3366537499    0.0299513048    0.8400601782
H1281      H    0.3366531128   -0.0299503965    0.8400595704
H1282      H    0.4133445469   -0.0299500597    0.9099401022
C1263      C    0.3451892711    0.2327876990    0.8750065361
C1264      C    0.3749993519    0.2155761425    0.8749997931
C1265      C    0.4048095707    0.2327866519    0.8749930228
C1266      C    0.4048097086    0.2672087177    0.8749929955
C1267      C    0.3749996277    0.2844202742    0.8749997385
C1268      C    0.3451894090    0.2672097648    0.8750065088
H1269      H    0.3231219663    0.2200474518    0.8750115479
H1270      H    0.4268758300    0.2200472636    0.8749880314
H1271      H    0.4268770133    0.2799489649    0.8749879837
H1272      H    0.3231231497    0.2799491531    0.8750115002
C1253      C    0.3825761569    0.0172103330    0.1538308433
C1254      C    0.3749989200    0.0344217558    0.1249997655
C1255      C    0.3674217073    0.0172111128    0.0961686983
C1256      C    0.3674217316   -0.0172109530    0.0961687090
C1257      C    0.3749989685   -0.0344223758    0.1249997868
C1258      C    0.3825761812   -0.0172117328    0.1538308540
H1259      H    0.3881852624    0.0299506792    0.1751733216
H1260      H    0.3618128237    0.0299504021    0.0748271246
H1261      H    0.3618126261   -0.0299512992    0.0748262307
H1262      H    0.3881850648   -0.0299510221    0.1751724277
C1243      C    0.3961198966    0.1460365399   -0.0172098938
C1244      C    0.3749990817    0.1249995058   -0.0344213147
C1245      C    0.3538782220    0.1039625434   -0.0172106693
C1246      C    0.3538781773    0.1039626152    0.0172113971
C1247      C    0.3749989922    0.1249996493    0.0344228180
C1248      C    0.3961198519    0.1460366117    0.0172121726
H1249      H    0.4117548187    0.1616093562   -0.0299502417
H1250      H    0.3382440015    0.0883903398   -0.0299499572
H1251      H    0.3382432552    0.0883897989    0.0299517450
H1252      H    0.4117540724    0.1616088153    0.0299514605
C1233      C    0.3452892533    0.2327889217    0.1274427324
C1234      C    0.3749990620    0.2155774130    0.1249993999
C1235      C    0.4047089529    0.2327879701    0.1225560569
C1236      C    0.4047090351    0.2672100360    0.1225560462
C1237      C    0.3749992263    0.2844215447    0.1249993787
C1238      C    0.3452893354    0.2672109875    0.1274427218
H1239      H    0.3232962172    0.2200486392    0.1292514409
H1240      H    0.4267009880    0.2200486172    0.1207474335
H1241      H    0.4267020712    0.2799503185    0.1207473377
H1242      H    0.3232973003    0.2799503404    0.1292513451
C1223      C    0.9041154607    0.0172112621    0.6314010768
C1224      C    0.8750005888    0.0344226806    0.6250002995
C1225      C    0.8458857172    0.0172120332    0.6185996208
C1226      C    0.8458857175   -0.0172100326    0.6185997193
C1227      C    0.8750005894   -0.0344214510    0.6250004965
C1228      C    0.9041154610   -0.0172108037    0.6314011753
H1229      H    0.9256680280    0.0299516115    0.6361392416
H1230      H    0.8243340711    0.0299513194    0.6138615856
H1231      H    0.8243331502   -0.0299503819    0.6138615544
H1232      H    0.9256671071   -0.0299500898    0.6361392105
C1213      C    0.0172118436    0.1034364530    0.6044167345
C1214      C    0.0344232773    0.1249994993    0.6250002284
C1215      C    0.0172126448    0.1465625421    0.6455837200
C1216      C   -0.0172094216    0.1465625386    0.6455837177
C1217      C   -0.0344208553    0.1249994924    0.6250002237
C1218      C   -0.0172102228    0.1034364496    0.6044167321
H1219      H    0.0299521820    0.0874742006    0.5891796043
H1220      H    0.0299519422    0.1625241146    0.6608202005
H1221      H   -0.0299497600    0.1625247911    0.6608208478
H1222      H   -0.0299495202    0.0874748770    0.5891802517
C1203      C    0.0172110702    0.8675394659    0.6538622108
C1204      C    0.0344224881    0.8749996648    0.6250006243
C1205      C    0.0172118397    0.8824598343    0.5961390533
C1206      C   -0.0172102266    0.8824598047    0.5961390688
C1207      C   -0.0344216445    0.8749996058    0.6250006553
C1208      C   -0.0172109962    0.8675394363    0.6538622263
H1209      H    0.0299514203    0.8620170028    0.6752272699
H1210      H    0.0299511255    0.8879820831    0.5747748962
H1211      H   -0.0299505767    0.8879822678    0.5747740097
H1212      H   -0.0299502819    0.8620171875    0.6752263834
C1193      C    0.0987133252    0.9827889435    0.6109412438
C1194      C    0.1249999032    0.9655775545    0.6250004951
C1195      C    0.1512864654    0.9827882313    0.6390596583
C1196      C    0.1512864496    1.0172102971    0.6390595703
C1197      C    0.1249998715    1.0344216861    0.6250003191
C1198      C    0.0987133093    1.0172110093    0.6109411559
H1199      H    0.0792544415    0.9700485723    0.6005338113
H1200      H    0.1707445290    0.9700489670    0.6494667110
H1201      H    0.1707453333    1.0299506683    0.6494670028
H1202      H    0.0792552458    1.0299502736    0.6005341032
C1183      C    0.6128686969    0.9022300226    0.2327899052
C1184      C    0.6249994469    0.8749996987    0.2155784848
C1185      C    0.6371302679    0.8477694277    0.2327891307
C1186      C    0.6371303390    0.8477694807    0.2672111970
C1187      C    0.6249995890    0.8749998046    0.2844226175
C1188      C    0.6128687679    0.9022300755    0.2672119716
H1189      H    0.6038887384    0.9223874958    0.2200495570
H1190      H    0.6461097899    0.8276127770    0.2200498431
H1191      H    0.6461102974    0.8276120075    0.2799515453
H1192      H    0.6038892460    0.9223867263    0.2799512591
C1173      C    0.6470175992    0.8950962878    0.7327900274
C1174      C    0.6249998691    0.8749999315    0.7155785586
C1175      C    0.6029820801    0.8549035856    0.7327891561
C1176      C    0.6029820213    0.8549035961    0.7672112225
C1177      C    0.6249997515    0.8749999524    0.7844226913
C1178      C    0.6470175404    0.8950962983    0.7672120937
H1179      H    0.6633164820    0.9099728036    0.7200497149
H1180      H    0.5866839376    0.8400276981    0.7200498327
H1181      H    0.5866831385    0.8400270803    0.7799515349
H1182      H    0.6633156829    0.9099721858    0.7799514171
C1163      C    0.7327907134    0.8477770049    0.6371482107
C1164      C    0.7155793108    0.8749998595    0.6250006826
C1165      C    0.7327899746    0.9022226739    0.6128531629
C1166      C    0.7672120409    0.9022226337    0.6128531713
C1167      C    0.7844234435    0.8749997791    0.6250006994
C1168      C    0.7672127797    0.8477769647    0.6371482191
H1169      H    0.7200503519    0.8276250513    0.6461405304
H1170      H    0.7200507003    0.9223737956    0.6038612213
H1171      H    0.7799524024    0.9223745872    0.6038608516
H1172      H    0.7799520541    0.8276258429    0.6461401606
C1153      C    0.5952250520    0.8735536877    0.5172114014
C1154      C    0.6250001250    0.8749999152    0.5344227961
C1155      C    0.6547751489    0.8764461365    0.5172121244
C1156      C    0.6547750999    0.8764461304    0.4827900581
C1157      C    0.6250000270    0.8749999029    0.4655786634
C1158      C    0.5952250030    0.8735536815    0.4827893351
H1159      H    0.5731838005    0.8724831082    0.5299517688
H1160      H    0.6768154944    0.8775166747    0.5299513929
H1161      H    0.6768163514    0.8775167098    0.4700496907
H1162      H    0.5731846575    0.8724831433    0.4700500666
C1143      C    0.4827891188    0.8765693786    0.6547697422
C1144      C    0.4655776717    0.8749998970    0.6250009420
C1145      C    0.4827882909    0.8734304307    0.5952321296
C1146      C    0.5172103573    0.8734304460    0.5952321175
C1147      C    0.5344218044    0.8749999275    0.6250009177
C1148      C    0.5172111851    0.8765693938    0.6547697301
H1149      H    0.4700487903    0.8777311913    0.6768063955
H1150      H    0.4700489836    0.8722686564    0.5731964274
H1151      H    0.5299506858    0.8722686333    0.5731954642
H1152      H    0.5299504924    0.8777311681    0.6768054323
C1133      C    0.3453144706    0.8722712480    0.7327899034
C1134      C    0.3749994996    0.8749998475    0.7155784989
C1135      C    0.4046844900    0.8777284541    0.7327891608
C1136      C    0.4046844513    0.8777284611    0.7672112271
C1137      C    0.3749994223    0.8749998616    0.7844226316
C1138      C    0.3453144319    0.8722712550    0.7672119698
H1139      H    0.3233398673    0.8702513704    0.7200495434
H1140      H    0.4266581825    0.8797482401    0.7200498850
H1141      H    0.4266590546    0.8797483387    0.7799515871
H1142      H    0.3233407395    0.8702514690    0.7799512456
C1123      C    0.2672093578    0.9019390835    0.6377645351
C1124      C    0.2844208490    0.8749997556    0.6250006873
C1125      C    0.2672102739    0.8480603663    0.6122368237
C1126      C    0.2327882075    0.8480603049    0.6122368080
C1127      C    0.2155767163    0.8749996328    0.6250006559
C1128      C    0.2327872915    0.9019390221    0.6377645194
H1129      H    0.2799496537    0.9218812288    0.6472131095
H1130      H    0.2799496138    0.8281191190    0.6027886649
H1131      H    0.2200479116    0.8281181596    0.6027882337
H1132      H    0.2200479515    0.9218802694    0.6472126782
C1113      C    0.3454038830    0.8714289201    0.4827910137
C1114      C    0.3749993947    0.8749998552    0.4655796000
C1115      C    0.4045948788    0.8785707913    0.4827902526
C1116      C    0.4045948512    0.8785707924    0.5172123190
C1117      C    0.3749993395    0.8749998573    0.5344237327
C1118      C    0.3454038554    0.8714289212    0.5172130800
H1119      H    0.3234955377    0.8687854999    0.4700506604
H1120      H    0.4265023080    0.8812140978    0.4700509701
H1121      H    0.4265031966    0.8812142126    0.5299526722
H1122      H    0.3234964263    0.8687856148    0.5299523626
C1103      C    0.3457556256    0.8807844690    0.2672099102
C1104      C    0.3749991344    0.8749997794    0.2844213370
C1105      C    0.4042426215    0.8692150431    0.2672106974
C1106      C    0.4042425999    0.8692149962    0.2327886311
C1107      C    0.3749990911    0.8749996857    0.2155772043
C1108      C    0.3457556040    0.8807844221    0.2327878438
H1109      H    0.3241078494    0.8850666764    0.2799502537
H1110      H    0.4258894882    0.8649330534    0.2799499897
H1111      H    0.4258903760    0.8649327888    0.2200482875
H1112      H    0.3241087373    0.8850664118    0.2200485515
C1093      C    0.4827879620    0.8640252733    0.4027171093
C1094      C    0.4655765096    0.8749998688    0.3750006376
C1095      C    0.4827871236    0.8859744713    0.3472841498
C1096      C    0.5172091900    0.8859744782    0.3472841339
C1097      C    0.5344206423    0.8749998826    0.3750006057
C1098      C    0.5172100283    0.8640252802    0.4027170934
H1099      H    0.4700476373    0.8559012169    0.4232345093
H1100      H    0.4700478125    0.8940981752    0.3267676388
H1101      H    0.5299495146    0.8940985345    0.3267667339
H1102      H    0.5299493395    0.8559015762    0.4232336045
C1083      C    0.9026500488    0.3861411492    0.7327893814
C1084      C    0.8750005207    0.3749991513    0.7155778120
C1085      C    0.8473508719    0.3638570445    0.7327883089
C1086      C    0.8473507513    0.3638569355    0.7672103752
C1087      C    0.8750002795    0.3749989334    0.7844219446
C1088      C    0.9026499282    0.3861410403    0.7672114477
H1089      H    0.9231179706    0.3943892024    0.7200491434
H1090      H    0.8268839144    0.3556094246    0.7200489110
H1091      H    0.8268828295    0.3556088824    0.7799506132
H1092      H    0.9231168857    0.3943886601    0.7799508456
C1073      C    0.8999959450    0.2672090199    0.6087559006
C1074      C    0.8750005448    0.2844205046    0.6250000812
C1075      C    0.8500050845    0.2672099235    0.6412442703
C1076      C    0.8500050243    0.2327878577    0.6412442788
C1077      C    0.8750004245    0.2155763730    0.6250000982
C1078      C    0.8999958849    0.2327869541    0.6087559091
H1079      H    0.9184990780    0.2799493202    0.5967309814
H1080      H    0.8315027870    0.2799492587    0.6532686691
H1081      H    0.8315018913    0.2200475574    0.6532691980
H1082      H    0.9184981823    0.2200476189    0.5967315103
C1063      C    0.8634097105    0.4024637208    0.4827905554
C1064      C    0.8750007545    0.3749993636    0.4655790647
C1065      C    0.8865918088    0.3475349439    0.4827896402
C1066      C    0.8865918192    0.3475348813    0.5172117066
C1067      C    0.8750007753    0.3749992384    0.5344231973
C1068      C    0.8634097209    0.4024636582    0.5172126217
H1069      H    0.8548293196    0.4227945251    0.4700502592
H1070      H    0.8951718252    0.3272050551    0.4700503006
H1071      H    0.8951722101    0.3272040770    0.5299520028
H1072      H    0.8548297046    0.4227935469    0.5299519614
C1053      C    0.9026373517    0.3638256807    0.2672092425
C1054      C    0.8750004985    0.3749991926    0.2844207394
C1055      C    0.8473635516    0.3861726562    0.2672101699
C1056      C    0.8473634579    0.3861726079    0.2327881036
C1057      C    0.8750003111    0.3749990960    0.2155766067
C1058      C    0.9026372580    0.3638256324    0.2327871762
H1059      H    0.9230958708    0.3555544155    0.2799495342
H1060      H    0.8269059764    0.3944436036    0.2799495141
H1061      H    0.8269049387    0.3944438731    0.2200478119
H1062      H    0.9230948331    0.3555546850    0.2200478320
C1043      C    0.9047847985    0.6237186252    0.7327916199
C1044      C    0.8750019940    0.6249993046    0.7155804880
C1045      C    0.8452195408    0.6262799493    0.7327914224
C1046      C    0.8452198923    0.6262799146    0.7672134887
C1047      C    0.8750026969    0.6249992352    0.7844246206
C1048      C    0.9047851500    0.6237185906    0.7672136862
H1049      H    0.9268315496    0.6227706155    0.7200510580
H1050      H    0.8231734722    0.6272279441    0.7200523484
H1051      H    0.8231731413    0.6272279243    0.7799540506
H1052      H    0.9268312186    0.6227705957    0.7799527602
C1033      C    0.8827265557    0.5172107213    0.6537924433
C1034      C    0.8750012845    0.5344222738    0.6250007554
C1035      C    0.8672758591    0.5172117603    0.5962089710
C1036      C    0.8672757049    0.4827896945    0.5962088745
C1037      C    0.8750009761    0.4655781421    0.6250005623
C1038      C    0.8827264015    0.4827886555    0.6537923468
H1039      H    0.8884453771    0.5299509715    0.6751058421
H1040      H    0.8615573963    0.5299511456    0.5748965548
H1041      H    0.8615568835    0.4700494443    0.5748954756
H1042      H    0.8884448643    0.4700492703    0.6751047630
C1023      C    0.8911560149    0.7327878424    0.5999476910
C1024      C    0.8750013109    0.7155764056    0.6250010465
C1025      C    0.8588464714    0.7327870347    0.6500543144
C1026      C    0.8588463360    0.7672091005    0.6500542267
C1027      C    0.8750010401    0.7844205373    0.6250008712
C1028      C    0.8911558795    0.7672099083    0.5999476034
H1029      H    0.9031147922    0.7200475067    0.5814017655
H1030      H    0.8468883056    0.7200477350    0.6685995119
H1031      H    0.8468875587    0.7799494363    0.6686001523
H1032      H    0.9031140453    0.7799492079    0.5814024058
C1013      C    0.8453352153    0.5172089862    0.3720700456
C1014      C    0.8750010324    0.5344203333    0.3750004836
C1015      C    0.9046667551    0.5172096146    0.3779308214
C1016      C    0.9046666606    0.4827875488    0.3779307210
C1017      C    0.8750008435    0.4655762017    0.3750002830
C1018      C    0.8453351208    0.4827869204    0.3720699453
H1019      H    0.8233748751    0.5299493883    0.3699008345
H1020      H    0.9266262263    0.5299488479    0.3801000139
H1021      H    0.9266270008    0.4700471467    0.3800999321
H1022      H    0.8233756496    0.4700476871    0.3699007527
C1003      C    0.8467904702    0.6346325209    0.4827892793
C1004      C    0.8750011738    0.6249992261    0.4655778155
C1005      C    0.9032119002    0.6153659039    0.4827884181
C1006      C    0.9032119232    0.6153658765    0.5172104845
C1007      C    0.8750012196    0.6249991713    0.5344219482
C1008      C    0.8467904931    0.6346324935    0.5172113456
H1009      H    0.8259072052    0.6417636815    0.4700489631
H1010      H    0.9240942555    0.6082350684    0.4700490985
H1011      H    0.9240951882    0.6082347159    0.5299508007
H1012      H    0.8259081378    0.6417633290    0.5299506653
C993       C    0.9047645707    0.6266653162    0.2672115196
C994       C    0.8750010449    0.6249990843    0.2844229941
C995       C    0.8452374748    0.6233328748    0.2672124023
C996       C    0.8452374305    0.6233328973    0.2327903359
C997       C    0.8750009563    0.6249991293    0.2155788614
C998       C    0.9047645264    0.6266653388    0.2327894532
H999       H    0.9267973433    0.6278987440    0.2799518278
H1000      H    0.8232056769    0.6220994831    0.2799517299
H1001      H    0.8232046579    0.6220994696    0.2200500277
H1002      H    0.9267963243    0.6278987305    0.2200501256
C983       C    0.3716365141    0.1546195820    0.7327892341
C984       C    0.3749990691    0.1249997000    0.7155777717
C985       C    0.3783616567    0.0953797925    0.7327883757
C986       C    0.3783616892    0.0953797671    0.7672104420
C987       C    0.3749991342    0.1249996491    0.7844219044
C988       C    0.3716365466    0.1546195565    0.7672113005
H989       H    0.3691473258    0.1765460070    0.7200489169
H990       H    0.3808507143    0.0734543237    0.7200490571
H991       H    0.3808508774    0.0734533420    0.7799507593
H992       H    0.3691474889    0.1765450253    0.7799506191
C973       C    0.2672102389    0.1252593960    0.6548089876
C974       C    0.2844216197    0.1249997432    0.6249999352
C975       C    0.2672109341    0.1247400803    0.5951909482
C976       C    0.2327888677    0.1247400702    0.5951910136
C977       C    0.2155774870    0.1249997229    0.6250000660
C978       C    0.2327881726    0.1252593859    0.6548090530
H979       H    0.2799506166    0.1254516140    0.6768753805
H980       H    0.2799501923    0.1245478780    0.5731254502
H981       H    0.2200484901    0.1245478521    0.5731246207
H982       H    0.2200489144    0.1254515882    0.6768745510
C963       C    0.3764610953    0.0952256289    0.4827889221
C964       C    0.3749990275    0.1249999218    0.4655775170
C965       C    0.3735370167    0.1547741802    0.4827881782
C966       C    0.3735370735    0.1547741457    0.5172102445
C967       C    0.3749991412    0.1249998529    0.5344216496
C968       C    0.3764611521    0.0952255944    0.5172109884
H969       H    0.3775433630    0.0731849440    0.4700485624
H970       H    0.3724547530    0.1768139482    0.4700489020
H971       H    0.3724548057    0.1768148306    0.5299506042
H972       H    0.3775434157    0.0731858264    0.5299502646
C953       C    0.3941626994    0.1021656107    0.2672091954
C954       C    0.3749990952    0.1249998443    0.2844206070
C955       C    0.3558354354    0.1478339923    0.2672099523
C956       C    0.3558353797    0.1478339068    0.2327878859
C957       C    0.3749989839    0.1249996733    0.2155764743
C958       C    0.3941626437    0.1021655252    0.2327871291
H959       H    0.4083487852    0.0852624102    0.2799495502
H960       H    0.3416499972    0.1647365335    0.2799492333
H961       H    0.3416492938    0.1647371073    0.2200475311
H962       H    0.4083480819    0.0852629841    0.2200478480
C943       C    0.5172089411    0.1255385922    0.5951941925
C944       C    0.5344204062    0.1249997902    0.6249994573
C945       C    0.5172098050    0.1244609883    0.6548047543
C946       C    0.4827877387    0.1244609884    0.6548047864
C947       C    0.4655762736    0.1249997904    0.6249995216
C948       C    0.4827868748    0.1255385923    0.5951942246
H949       H    0.5299492563    0.1259374455    0.5731305311
H950       H    0.5299491257    0.1240621520    0.6768674486
H951       H    0.4700474235    0.1240621350    0.6768684478
H952       H    0.4700475541    0.1259374286    0.5731315303
C933       C    0.6508773229    0.1102016297    0.7327881616
C934       C    0.6249995318    0.1249997177    0.7155766782
C935       C    0.5991216694    0.1397977884    0.7327872612
C936       C    0.5991215981    0.1397977710    0.7672093275
C937       C    0.6249993893    0.1249996830    0.7844208109
C938       C    0.6508772517    0.1102016124    0.7672102280
H939       H    0.6700336626    0.0992472138    0.7200478600
H940       H    0.5799662014    0.1507517488    0.7200479270
H941       H    0.5799652584    0.1507521869    0.7799496292
H942       H    0.6700327197    0.0992476519    0.7799495621
C923       C    0.7327894378    0.1134980114    0.5974979558
C924       C    0.7155779312    0.1249997519    0.6249998222
C925       C    0.7327884910    0.1365014893    0.6525017765
C926       C    0.7672105573    0.1365014862    0.6525018646
C927       C    0.7844220639    0.1249997457    0.6249999983
C928       C    0.7672115042    0.1134980083    0.5974980439
H929       H    0.7200491534    0.1049837382    0.5771393662
H930       H    0.7200491396    0.1450154008    0.6728594306
H931       H    0.7799508418    0.1450157594    0.6728604542
H932       H    0.7799508555    0.1049840968    0.5771403898
C913       C    0.5172089400    0.1043013523    0.3535468342
C914       C    0.5344203468    0.1249999123    0.3749994735
C915       C    0.5172096871    0.1456984792    0.3964520569
C916       C    0.4827876208    0.1456984861    0.3964520012
C917       C    0.4655762141    0.1249999261    0.3749993619
C918       C    0.4827868737    0.1043013592    0.3535467785
H919       H    0.5299492985    0.0889790365    0.3376663503
H920       H    0.5299489645    0.1610201348    0.4123319032
H921       H    0.4700472624    0.1610208019    0.4123324851
H922       H    0.4700475963    0.0889797036    0.3376669322
C903       C    0.6394999800    0.0989541617    0.2672114699
C904       C    0.6249992962    0.1249998227    0.2844228715
C905       C    0.6104985622    0.1510454085    0.2672122067
C906       C    0.6104985120    0.1510453332    0.2327901404
C907       C    0.6249991957    0.1249996722    0.2155787388
C908       C    0.6394999297    0.0989540864    0.2327894036
H909       H    0.6502342896    0.0796736631    0.2799518322
H910       H    0.5997647488    0.1703251385    0.2799514803
H911       H    0.5997642024    0.1703258318    0.2200497781
H912       H    0.6502337432    0.0796743564    0.2200501300
C893       C    0.6016145644    0.1434874201    0.4827889830
C894       C    0.6249995331    0.1249998961    0.4655775526
C895       C    0.6483844689    0.1065123435    0.4827881886
C896       C    0.6483844360    0.1065123148    0.5172102549
C897       C    0.6249994673    0.1249998388    0.5344216853
C898       C    0.6016145314    0.1434873914    0.5172110493
H899       H    0.5843036378    0.1571730110    0.4700486420
H900       H    0.6656946798    0.0928273589    0.4700488937
H901       H    0.6656953626    0.0928267239    0.5299505959
H902       H    0.5843043206    0.1571723761    0.5299503442
C883       C    0.0983740914    0.6115960888    0.7327891947
C884       C    0.1250010739    0.6249992722    0.7155776543
C885       C    0.1516282110    0.6384024132    0.7327881803
C886       C    0.1516283656    0.6384023708    0.7672102466
C887       C    0.1250013831    0.6249991874    0.7844217870
C888       C    0.0983742460    0.6115960464    0.7672112610
H889       H    0.0786630938    0.6016742831    0.7200489352
H890       H    0.1713382515    0.6483238261    0.7200488039
H891       H    0.1713393632    0.6483241765    0.7799505061
H892       H    0.0786642055    0.6016746335    0.7799506374
C873       C    0.1548107346    0.7327889066    0.6249793398
C874       C    0.1250006553    0.7155773594    0.6250006859
C875       C    0.0951904488    0.7327878780    0.6250220254
C876       C    0.0951903216    0.7672099438    0.6250220188
C877       C    0.1250004009    0.7844214910    0.6250006727
C878       C    0.1548106074    0.7672109724    0.6249793331
H879       H    0.1768780304    0.7200486525    0.6249635430
H880       H    0.0731241906    0.7200484966    0.6250378264
H881       H    0.0731230258    0.7799501979    0.6250378156
H882       H    0.1768768656    0.7799503538    0.6249635321
C863       C    0.1029593424    0.6049286691    0.2672124759
C864       C    0.1250007878    0.6249990040    0.2844239542
C865       C    0.1470422731    0.6450693653    0.2672133662
C866       C    0.1470423130    0.6450693917    0.2327912998
C867       C    0.1250008677    0.6249990568    0.2155798215
C868       C    0.1029593824    0.6049286956    0.2327904096
H869       H    0.0866429183    0.5900713887    0.2799527814
H870       H    0.1633579701    0.6599259909    0.2799526966
H871       H    0.1633587372    0.6599266721    0.2200509944
H872       H    0.0866436853    0.5900720699    0.2200510792
C853       C    0.1427071915    0.6489809462    0.4827900836
C854       C    0.1250007142    0.6249991730    0.4655786382
C855       C    0.1072942449    0.6010173824    0.4827892591
C856       C    0.1072942529    0.6010173649    0.5172113255
C857       C    0.1250007301    0.6249991381    0.5344227709
C858       C    0.1427071994    0.6489809287    0.5172121499
H859       H    0.1558145778    0.6667337003    0.4700497538
H860       H    0.0941874130    0.5832654002    0.4700499531
H861       H    0.0941868665    0.5832646108    0.5299516552
H862       H    0.1558140313    0.6667329110    0.5299514560
C843       C    0.1431134037    0.3513226840    0.7327891264
C844       C    0.1250004690    0.3749989846    0.7155777052
C845       C    0.1068874997    0.3986752354    0.7327883502
C846       C    0.1068874651    0.3986751856    0.7672104166
C847       C    0.1250003998    0.3749988850    0.7844218378
C848       C    0.1431133691    0.3513226342    0.7672111927
H849       H    0.1565217057    0.3337961088    0.7200487788
H850       H    0.0934797966    0.4162010982    0.7200490621
H851       H    0.0934791631    0.4162017608    0.7799507642
H852       H    0.1565210722    0.3337967714    0.7799504809
C833       C    0.0960050037    0.4827886225    0.6319207985
C834       C    0.1250006703    0.4655771432    0.6250001817
C835       C    0.1539964052    0.4827877298    0.6180796406
C836       C    0.1539964734    0.5172097956    0.6180797163
C837       C    0.1250008067    0.5344212749    0.6250003331
C838       C    0.0960050718    0.5172106883    0.6319208742
H839       H    0.0745406285    0.4700483182    0.6370437965
H840       H    0.1754598123    0.4700483987    0.6129568056
H841       H    0.1754608486    0.5299500999    0.6129567184
H842       H    0.0745416648    0.5299500194    0.6370437092
C823       C    0.1255925730    0.2672100577    0.5951959399
C824       C    0.1250003410    0.2844214699    0.6250002213
C825       C    0.1244080364    0.2672108164    0.6548044726
C826       C    0.1244079637    0.2327887505    0.6548044425
C827       C    0.1250001957    0.2155773383    0.6250001611
C828       C    0.1255925003    0.2327879919    0.5951959098
H829       H    0.1260310322    0.2799504117    0.5731330525
H830       H    0.1239696496    0.2799500979    0.6768664390
H831       H    0.1239695045    0.2200483966    0.6768673299
H832       H    0.1260308871    0.2200487104    0.5731339433
C813       C    0.1534871526    0.4827875090    0.3837848202
C814       C    0.1250006277    0.4655761339    0.3750004529
C815       C    0.0965141496    0.4827868245    0.3662161767
C816       C    0.0965141963    0.5172088903    0.3662162677
C817       C    0.1250007211    0.5344202655    0.3750006350
C818       C    0.1534871993    0.5172095749    0.3837849112
H819       H    0.1745745455    0.4700471276    0.3902874662
H820       H    0.0754276236    0.4700475704    0.3597137412
H821       H    0.0754268033    0.5299492717    0.3597136217
H822       H    0.1745737252    0.5299488289    0.3902873467
C803       C    0.1354655350    0.3470864881    0.4827905444
C804       C    0.1250005147    0.3749993582    0.4655791046
C805       C    0.1145354935    0.4029122310    0.4827897311
C806       C    0.1145354926    0.4029122339    0.5172117974
C807       C    0.1250005129    0.3749993638    0.5344232372
C808       C    0.1354655342    0.3470864909    0.5172126107
H809       H    0.1432123689    0.3264237121    0.4700502105
H810       H    0.1067889914    0.4235741216    0.4700504291
H811       H    0.1067886587    0.4235750099    0.5299521313
H812       H    0.1432120362    0.3264246003    0.5299519127
C793       C    0.1337182389    0.4035060696    0.2672103013
C794       C    0.1250004818    0.3749991475    0.2844217723
C795       C    0.1162827231    0.3464921853    0.2672111769
C796       C    0.1162827215    0.3464921452    0.2327891105
C797       C    0.1250004786    0.3749990672    0.2155776396
C798       C    0.1337182373    0.4035060294    0.2327882350
H799       H    0.1401716447    0.4246086260    0.2799506122
H800       H    0.1098295943    0.3253905608    0.2799505018
H801       H    0.1098293157    0.3253895888    0.2200487997
H802       H    0.1401713661    0.4246076540    0.2200489100
C783       C    0.8454452224    0.7672100034    0.3788875582
C784       C    0.8750008460    0.7844215099    0.3750006831
C785       C    0.9045565587    0.7672109506    0.3711138701
C786       C    0.9045566478    0.7327888848    0.3711139324
C787       C    0.8750010242    0.7155773782    0.3750008076
C788       C    0.8454453115    0.7327879375    0.3788876205
H789       H    0.8235663182    0.7799502875    0.3817648094
H790       H    0.9264344616    0.7799503019    0.3682366959
H791       H    0.9264355520    0.7200486006    0.3682366812
H792       H    0.8235674086    0.7200485862    0.3817647947
C773       C    0.7672117787    0.8606431058    0.3488753643
C774       C    0.7844232579    0.8749998314    0.3750006022
C775       C    0.7672126707    0.8893565682    0.4011258892
C776       C    0.7327906044    0.8893565793    0.4011259383
C777       C    0.7155791252    0.8749998537    0.3750007004
C778       C    0.7327897123    0.8606431169    0.3488754133
H779       H    0.7799520834    0.8500153916    0.3295358661
H780       H    0.7799520018    0.8999838198    0.4204645243
H781       H    0.7200502996    0.8999842936    0.4204654365
H782       H    0.7200503813    0.8500158653    0.3295367783
C763       C    0.7672105225    0.1377358119    0.4019524857
C764       C    0.7844219940    0.1249998859    0.3749999333
C765       C    0.7672113992    0.1122639704    0.3480473322
C766       C    0.7327893329    0.1122639809    0.3480472835
C767       C    0.7155778613    0.1249999069    0.3749998360
C768       C    0.7327884561    0.1377358223    0.4019524371
H769       H    0.7799508329    0.1471636973    0.4219044113
H770       H    0.7799507246    0.1028364803    0.3280962957
H771       H    0.7200490224    0.1028360955    0.3280953580
H772       H    0.7200491307    0.1471633125    0.4219034736
C753       C    0.8460696710   -0.0172098446    0.3678129369
C754       C    0.8750004145   -0.0344212243    0.3750003658
C755       C    0.9039311135   -0.0172105381    0.3821876986
C756       C    0.9039310691    0.0172115277    0.3821876023
C757       C    0.8750003257    0.0344229074    0.3750001733
C758       C    0.8460696266    0.0172122212    0.3678128406
H759       H    0.8246534392   -0.0299502227    0.3624924438
H760       H    0.9253464626   -0.0299497955    0.3875080354
H761       H    0.9253473009    0.0299519058    0.3875080953
H762       H    0.8246542775    0.0299514786    0.3624925038
C743       C    0.8706059183    0.2672103117    0.4044843577
C744       C    0.8750005696    0.2844217308    0.3749999087
C745       C    0.8793952033    0.2672110841    0.3455154780
C746       C    0.8793951857    0.2327890183    0.3455154963
C747       C    0.8750005344    0.2155775992    0.3749999453
C748       C    0.8706059008    0.2327882459    0.4044843760
H749       H    0.8673527479    0.2799506605    0.4263104947
H750       H    0.8826482476    0.2799503707    0.3236902605
H751       H    0.8826483561    0.2200486694    0.3236893593
H752       H    0.8673528564    0.2200489593    0.4263095935
C733       C    0.1511380076    0.7672101194    0.3893351144
C734       C    0.1250003989    0.7844214495    0.3750007443
C735       C    0.0988628859    0.7672107138    0.3606664563
C736       C    0.0988629817    0.7327886479    0.3606665384
C737       C    0.1250005905    0.7155773178    0.3750009085
C738       C    0.1511381034    0.7327880536    0.3893351966
H739       H    0.1704865561    0.7799505341    0.3999462108
H740       H    0.0795150937    0.7799499345    0.3500557528
H741       H    0.0795144332    0.7200482332    0.3500554421
H742       H    0.1704858957    0.7200488329    0.3999459000
C723       C    0.2327890316    0.9011678431    0.3607221183
C724       C    0.2155776466    0.8749996628    0.3750005354
C725       C    0.2327883279    0.8488315343    0.3892789215
C726       C    0.2672103943    0.8488315862    0.3892788905
C727       C    0.2844217792    0.8749997665    0.3750004733
C728       C    0.2672110979    0.9011678949    0.3607220872
H729       H    0.2200486571    0.9205390550    0.3501524039
H730       H    0.2200490666    0.8294611121    0.3998482070
H731       H    0.2799507688    0.8294603743    0.3998486049
H732       H    0.2799503592    0.9205383172    0.3501528017
C713       C   -0.0172102322    0.8452183604    0.3763112020
C714       C   -0.0344216941    0.8749996694    0.3750005386
C715       C   -0.0172110896    0.9047810072    0.3736898840
C716       C    0.0172109768    0.9047810360    0.3736898928
C717       C    0.0344224386    0.8749997269    0.3750005562
C718       C    0.0172118341    0.8452183892    0.3763112108
H719       H   -0.0299505498    0.8231724351    0.3772814268
H720       H   -0.0299504078    0.9268259688    0.3727196942
H721       H    0.0299512944    0.9268269613    0.3727196680
H722       H    0.0299511523    0.8231734276    0.3772814007
C703       C    0.2327888260    0.1213226425    0.3454173539
C704       C    0.2155774641    0.1250000603    0.3749998532
C705       C    0.2327881684    0.1286774422    0.4045822694
C706       C    0.2672102348    0.1286774065    0.4045821861
C707       C    0.2844215967    0.1249999887    0.3749996868
C708       C    0.2672108923    0.1213226067    0.3454172706
H709       H    0.2200484345    0.1186004247    0.3235186822
H710       H    0.2200489242    0.1313995702    0.4264800665
H711       H    0.2799506263    0.1313996243    0.4264808578
H712       H    0.2799501366    0.1186004788    0.3235194735
C693       C    0.1337153046    0.2327899486    0.4035077621
C694       C    0.1250002115    0.2155785480    0.3749999828
C695       C    0.1162851871    0.2327892133    0.3464922264
C696       C    0.1162852559    0.2672112791    0.3464922495
C697       C    0.1250003490    0.2844226797    0.3750000289
C698       C    0.1337153734    0.2672120144    0.4035077852
H699       H    0.1401666863    0.2200495860    0.4246109064
H700       H    0.1098340304    0.2200499405    0.3253899673
H701       H    0.1098338742    0.2799516418    0.3253891052
H702       H    0.1401665301    0.2799512873    0.4246100444
C683       C    0.0172118175    0.1313506744    0.3458742346
C684       C    0.0344232440    0.1249999573    0.3750000623
C685       C    0.0172126041    0.1186492936    0.4041258889
C686       C   -0.0172094622    0.1186493470    0.4041258877
C687       C   -0.0344208887    0.1250000640    0.3750000599
C688       C   -0.0172102488    0.1313507277    0.3458742334
H689       H    0.0299521613    0.1360518151    0.3243135578
H690       H    0.0299518961    0.1139483144    0.4256856448
H691       H   -0.0299498061    0.1139482063    0.4256865645
H692       H   -0.0299495408    0.1360517069    0.3243144774
C673       C    0.1107215570    0.0172103771    0.3488320143
C674       C    0.1249998855    0.0344219075    0.3750001476
C675       C    0.1392782423    0.0172113720    0.4011683881
C676       C    0.1392782706   -0.0172106939    0.4011684954
C677       C    0.1249999420   -0.0344222242    0.3750003621
C678       C    0.1107215852   -0.0172116887    0.3488321215
H679       H    0.1001518643    0.0299506437    0.3294607193
H680       H    0.1498474622    0.0299507409    0.4205387755
H681       H    0.1498479633   -0.0299509604    0.4205397903
H682       H    0.1001523653   -0.0299510576    0.3294617341
loop_
_geom_bond_atom_site_label_1
_geom_bond_atom_site_label_2
_geom_bond_distance
_geom_bond_site_symmetry_2
_ccdc_geom_bond_type
O309       C319 1.250       .   A
O309      Cu317 1.951       .   S
C1178     H1182 1.140       .   S
C1176     H1181 1.140       .   S
C1175     H1180 1.140       .   S
O302       C305 1.250       .   A
O302      Cu304 1.951       .   S
O300       C307 1.251       .   A
O300      Cu304 1.951       .   S
O301       C306 1.250       .   A
O301      Cu304 1.951       .   S
C1183     H1189 1.140       .   S
C1503     H1509 1.140       .   S
O239      Cu247 1.951       .   S
O239       C249 1.250       .   A
C1498     H1502 1.140       .   S
C1496     H1501 1.140       .   S
C1495     H1500 1.140       .   S
O232      Cu234 1.951       .   S
O232       C235 1.250       .   A
O230      Cu234 1.951       .   S
O230       C237 1.251       .   A
O231      Cu234 1.951       .   S
O231       C236 1.250       .   A
O540      Cu542 1.951       .   S
O540       C543 1.250       .   A
C925       H930 1.140       .   S
C926       H931 1.140       .   S
C928       H932 1.140       .   S
O547       C557 1.250       .   A
O547      Cu555 1.951       .   S
O548      Cu555 1.951       .   S
O548       C558 1.250       .   A
O549      Cu555 1.951       .   S
O549       C559 1.250       .   A
C933       H939 1.140       .   S
C1288     H1292 1.140       .   S
C1286     H1291 1.140       .   S
C1285     H1290 1.140       .   S
C1215     H1220 1.140       .   S
C1293     H1299 1.140       .   S
C1336     H1341 1.140       .   S
C1335     H1340 1.140       .   S
C1338     H1342 1.140       .   S
C1608     H1612 1.140       .   S
C1606     H1611 1.140       .   S
C1605     H1610 1.140       .   S
C1343     H1349 1.140       .   S
C1613     H1619 1.140       .   S
O162      Cu164 1.951       .   S
O162       C165 1.250       .   A
O160       C167 1.251       .   A
O160      Cu164 1.951       .   S
O161       C166 1.250       .   A
O161      Cu164 1.951       .   S
O169       C179 1.250       .   A
O169      Cu177 1.951       .   S
C669      C1597 1.540       .   S
O659       C669 1.250       .   A
O666       C669 1.250       .   A
O492       C502 1.250       .   A
O492      Cu499 1.951       .   S
O493       C503 1.250       .   A
O493      Cu499 1.951       .   S
O491       C501 1.250       .   A
O491      Cu499 1.951       .   S
O496       C503 1.251       .   A
O496      Cu500 1.951       .   S
O497       C502 1.250       .   A
O497      Cu500 1.951       .   S
O494       C504 1.250       .   A
O494      Cu499 1.951       .   S
O495       C504 1.250       .   A
O495      Cu500 1.951       .   S
O498       C501 1.250       .   A
O498      Cu500 1.951       .   S
C1348     H1352 1.140       .   S
O75        Cu80 1.951       .   S
O77        Cu80 1.951       .   S
O76        Cu80 1.951       .   S
Cu79       Cu80 2.630       .   S
O78        Cu80 1.951       .   S
C599      C1544 1.540       .   S
O596       C599 1.250       .   A
O589       C599 1.250       .   A
C905       C906 1.540       .   A
C906       C907 1.540       .   A
C906       H911 1.140       .   S
C1007     C1008 1.540       .   A
C1003     C1008 1.540       .   A
C1008     H1012 1.140       .   S
C793       H799 1.140       .   S
C1005     C1006 1.540       .   A
C1006     C1007 1.540       .   A
C1006     H1011 1.140       .   S
C785       H790 1.140       .   S
C908       H912 1.140       .   S
C907       C908 1.540       .   A
C903       C908 1.540       .   A
C788       H792 1.140       .   S
O270       C280 1.250       .   A
O271       C280 1.250       .   A
C1187      C280 1.540       .   S
O438       C448 1.250       .   A
O439       C448 1.250       .   A
C448       C847 1.540       .   S
O435       C445 1.250       .   A
C445      C1384 1.540       .   S
O442       C445 1.250       .   A
C447      C1377 1.540   1_556   S
O440       C447 1.251       .   A
O437       C447 1.250       .   A
O441       C446 1.250       .   A
O436       C446 1.250       .   A
C446      C1357 1.540   1_455   S
C112       C857 1.540       .   S
O102       C112 1.250       .   A
O103       C112 1.250       .   A
O101       C111 1.250       .   A
O104       C111 1.251       .   A
C111       C884 1.540       .   S
O100       C110 1.250       .   A
C110       C837 1.540       .   S
O105       C110 1.250       .   A
O103      Cu108 1.951       .   S
O104      Cu108 1.951       .   S
O105      Cu108 1.951       .   S
O106      Cu108 1.951       .   S
Cu107     Cu108 2.630       .   S
C1223     C1228 1.540       .   A
C1223     C1224 1.540       .   A
C1223     H1229 1.140       .   S
C1225     H1230 1.140       .   S
C1224     C1225 1.540       .   A
C1225     C1226 1.540       .   A
C321      C1224 1.540       .   S
C1227      C333 1.540   1_545   S
C1227     C1228 1.540       .   A
C1226     C1227 1.540       .   A
C1226     H1231 1.140       .   S
C1228     H1232 1.140       .   S
O100      Cu107 1.951       .   S
O101      Cu107 1.951       .   S
O102      Cu107 1.951       .   S
O99       Cu107 1.951       .   S
O17        Cu23 1.951       .   S
O17         C27 1.250       .   A
O16         C26 1.250       .   A
O16        Cu23 1.951       .   S
O15        Cu23 1.951       .   S
O15         C25 1.250       .   A
O19        Cu24 1.951       .   S
O19         C28 1.250       .   A
O18         C28 1.250       .   A
O18        Cu23 1.951       .   S
C1138     H1142 1.140       .   S
C1137     C1138 1.540       .   A
C1133     C1138 1.540       .   A
C1135     H1140 1.140       .   S
C1134     C1135 1.540       .   A
C1135     C1136 1.540       .   A
C252      C1134 1.540       .   S
C1133     C1134 1.540       .   A
C1136     C1137 1.540       .   A
C1137      C378 1.540       .   S
C1136     H1141 1.140       .   S
C1133     H1139 1.140       .   S
C1626     C1627 1.540       .   A
C1627     C1628 1.540       .   A
C671      C1627 1.540       .   S
C1625     C1626 1.540       .   A
C1626     H1631 1.140       .   S
C1353     C1358 1.540       .   A
C1358     H1362 1.140       .   S
C1357     C1358 1.540       .   A
C1353     H1359 1.140       .   S
C1353     C1354 1.540       .   A
C828       H832 1.140       .   S
C1355     H1360 1.140       .   S
C1354     C1355 1.540       .   A
C1355     C1356 1.540       .   A
C1354      C418 1.540       .   S
C1356     C1357 1.540       .   A
C1356     H1361 1.140       .   S
O427       C432 1.250       .   A
O427      Cu430 1.951       .   S
O426       C433 1.251       .   A
O426      Cu430 1.951       .   S
O425       C434 1.250       .   A
O425      Cu430 1.951       .   S
C1423     H1429 1.140       .   S
O424      Cu429 1.951       .   S
O424       C434 1.250       .   A
O650      Cu654 1.951       .   S
O651      Cu654 1.951       .   S
O649      Cu654 1.951       .   S
O652      Cu654 1.951       .   S
Cu653     Cu654 2.630       .   S
C1416     H1421 1.140       .   S
C1418     H1422 1.140       .   S
O648      Cu653 1.951       .   S
O647      Cu653 1.951       .   S
O646      Cu653 1.951       .   S
O645      Cu653 1.951       .   S
O421       C431 1.250       .   A
O421      Cu429 1.951       .   S
C703       C708 1.540       .   A
C708       H712 1.140       .   S
C707       C708 1.540       .   A
C1185     H1190 1.140       .   S
C1186     H1191 1.140       .   S
C1188     H1192 1.140       .   S
C1193     H1199 1.140       .   S
C1505     H1510 1.140       .   S
C1506     H1511 1.140       .   S
C1508     H1512 1.140       .   S
C1513     H1519 1.140       .   S
O229      Cu234 1.951       .   S
O229       C238 1.250       .   A
O228       C238 1.250       .   A
O228      Cu233 1.951       .   S
O596      Cu598 1.951       .   S
O595      Cu598 1.951       .   S
O594      Cu598 1.951       .   S
O593      Cu598 1.951       .   S
Cu597     Cu598 2.630       .   S
O225      Cu233 1.951       .   S
O225       C235 1.250       .   A
O227      Cu233 1.951       .   S
O227       C237 1.250       .   A
O226       C236 1.250       .   A
O226      Cu233 1.951       .   S
O553      Cu556 1.951       .   S
O553       C558 1.250       .   A
O552      Cu556 1.951       .   S
O552       C559 1.251       .   A
O551      Cu556 1.951       .   S
O551       C560 1.250       .   A
O550      Cu555 1.951       .   S
O550       C560 1.250       .   A
C918       H922 1.140       .   S
C916       H921 1.140       .   S
O554       C557 1.250       .   A
O554      Cu556 1.951       .   S
C923       H929 1.140       .   S
C1283     H1289 1.140       .   S
C1275     H1280 1.140       .   S
C1276     H1281 1.140       .   S
C1278     H1282 1.140       .   S
O315       C320 1.250       .   A
O315      Cu318 1.951       .   S
C1596     H1601 1.140       .   S
C1345     H1350 1.140       .   S
C1346     H1351 1.140       .   S
O311       C321 1.250       .   A
O311      Cu317 1.951       .   S
O310       C320 1.250       .   A
O310      Cu317 1.951       .   S
O313      Cu318 1.951       .   S
O313       C322 1.250       .   A
O312       C322 1.250       .   A
O312      Cu317 1.951       .   S
C1603     H1609 1.140       .   S
O610       C613 1.250       .   A
O603       C613 1.250       .   A
C613      C1567 1.540       .   S
C614      C1317 1.540       .   S
O604       C614 1.250       .   A
O609       C614 1.250       .   A
O605       C615 1.250       .   A
C615      C1467 1.540       .   S
O608       C615 1.251       .   A
O607       C616 1.250       .   A
O606       C616 1.250       .   A
C616      C1587 1.540       .   S
O175       C180 1.250       .   A
O175      Cu178 1.951       .   S
O174      Cu178 1.951       .   S
O174       C181 1.251       .   A
O176       C179 1.250       .   A
O176      Cu178 1.951       .   S
O171      Cu177 1.951       .   S
O171       C181 1.250       .   A
O170      Cu177 1.951       .   S
O170       C180 1.250       .   A
O173      Cu178 1.951       .   S
O173       C182 1.250       .   A
O172      Cu177 1.951       .   S
O172       C182 1.250       .   A
O484      Cu486 1.951       .   S
O484       C487 1.250       .   A
O481      Cu486 1.951       .   S
O481       C490 1.250       .   A
O480      Cu485 1.951       .   S
O480       C490 1.250       .   A
O483       C488 1.250       .   A
O483      Cu486 1.951       .   S
O482       C489 1.251       .   A
O482      Cu486 1.951       .   S
O85        Cu93 1.951       .   S
O86        Cu93 1.951       .   S
O87        Cu93 1.951       .   S
O88        Cu93 1.951       .   S
Cu93       Cu94 2.630       .   S
O92        Cu94 1.951       .   S
O89        Cu94 1.951       .   S
O91        Cu94 1.951       .   S
O90        Cu94 1.951       .   S
C727       C728 1.540       .   A
C728       H732 1.140       .   S
C723       C728 1.540       .   A
C724       C725 1.540       .   A
C28        C724 1.540       .   S
C723       C724 1.540       .   A
C725       C726 1.540       .   A
C725       H730 1.140       .   S
C726       C727 1.540       .   A
C726       H731 1.140       .   S
C238       C727 1.540       .   S
C723       H729 1.140       .   S
C783       H789 1.140       .   S
C778       H782 1.140       .   S
C776       H781 1.140       .   S
C775       H780 1.140       .   S
O113       C123 1.250       .   A
O120       C123 1.250       .   A
C123       C767 1.540       .   S
C432      C1374 1.540       .   S
O422       C432 1.250       .   A
C433      C1364 1.540       .   S
O423       C433 1.250       .   A
C904       C126 1.540       .   S
O117       C126 1.250       .   A
O116       C126 1.250       .   A
O119       C124 1.250       .   A
C914       C124 1.540       .   S
O114       C124 1.250       .   A
O118       C125 1.251       .   A
C125       C894 1.540       .   S
O115       C125 1.250       .   A
C1233     C1238 1.540       .   A
C1233     H1239 1.140       .   S
C1233     C1234 1.540       .   A
C683       H689 1.140       .   S
C1236     H1241 1.140       .   S
C1236     C1237 1.540       .   A
C1235     C1236 1.540       .   A
C1237     C1238 1.540       .   A
C1237      C572 1.540       .   S
C1234      C347 1.540       .   S
C1234     C1235 1.540       .   A
C1235     H1240 1.140       .   S
C1238     H1242 1.140       .   S
C743       C744 1.540       .   A
C743       H749 1.140       .   S
C743       C748 1.540       .   A
C544      C1517 1.540   1_655   S
O534       C544 1.250       .   A
O539       C544 1.250       .   A
O535       C545 1.250       .   A
O538       C545 1.251       .   A
C545      C1524 1.540       .   S
O537       C546 1.250       .   A
O536       C546 1.250       .   A
C546      C1047 1.540       .   S
C543      C1534 1.540       .   S
O533       C543 1.250       .   A
C943       C948 1.540       .   A
C948       H952 1.140       .   S
C947       C948 1.540       .   A
C1128     H1132 1.140       .   S
C1127     C1128 1.540       .   A
C1123     C1128 1.540       .   A
C1126     C1127 1.540       .   A
C1126     H1131 1.140       .   S
C1125     C1126 1.540       .   A
C1127      C294 1.540       .   S
C249      C1124 1.540       .   S
C1124     C1125 1.540       .   A
C1123     C1124 1.540       .   A
C943       H949 1.140       .   S
C943       C944 1.540       .   A
C944       C945 1.540       .   A
C944       C138 1.540       .   S
C1123     H1129 1.140       .   S
C946       H951 1.140       .   S
C945       C946 1.540       .   A
C946       C947 1.540       .   A
C168       C947 1.540       .   S
C1343     C1348 1.540       .   A
C1347     C1348 1.540       .   A
C1056     H1061 1.140       .   S
C1056     C1057 1.540       .   A
C1055     C1056 1.540       .   A
C1346     C1347 1.540       .   A
C1345     C1346 1.540       .   A
C1347      C655 1.540       .   S
C1343     C1344 1.540       .   A
C1344      C417 1.540       .   S
C1344     C1345 1.540       .   A
C1054      C207 1.540       .   S
C1053     C1054 1.540       .   A
C1054     C1055 1.540       .   A
C1055     H1060 1.140       .   S
Cu625     Cu626 2.630       .   S
O617      Cu625 1.951       .   S
O618      Cu625 1.951       .   S
O619      Cu625 1.951       .   S
O620      Cu625 1.951       .   S
O624      Cu626 1.951       .   S
O621      Cu626 1.951       .   S
O623      Cu626 1.951       .   S
O622      Cu626 1.951       .   S
C953       C958 1.540       .   A
C958       H962 1.140       .   S
C957       C958 1.540       .   A
C816       H821 1.140       .   S
C816       C817 1.540       .   A
C815       C816 1.540       .   A
C817       C818 1.540       .   A
C96        C817 1.540       .   S
C1163     H1169 1.140       .   S
C813       C814 1.540       .   A
C814        C70 1.540       .   S
C814       C815 1.540       .   A
O8          C11 1.250       .   A
O8         Cu10 1.951       .   S
C1156     H1161 1.140       .   S
C1155     H1160 1.140       .   S
C1158     H1162 1.140       .   S
C1113     H1119 1.140       .   S
C1113     C1118 1.540       .   A
C1113     C1114 1.540       .   A
C818       H822 1.140       .   S
C813       C818 1.540       .   A
C1556     H1561 1.140       .   S
C1555     H1560 1.140       .   S
C1558     H1562 1.140       .   S
C1563     H1569 1.140       .   S
C956       C957 1.540       .   A
C957       C350 1.540       .   S
C1116     H1121 1.140       .   S
C1116     C1117 1.540       .   A
C1115     C1116 1.540       .   A
C1115     H1120 1.140       .   S
C1114     C1115 1.540       .   A
C953       C954 1.540       .   A
C954       C151 1.540       .   S
C954       C955 1.540       .   A
C905       H910 1.140       .   S
O568      Cu570 1.951       .   S
O568       C571 1.250       .   A
O566      Cu570 1.951       .   S
O566       C573 1.251       .   A
O567      Cu570 1.951       .   S
O567       C572 1.250       .   A
O564       C574 1.250       .   A
O564      Cu569 1.951       .   S
O565      Cu570 1.951       .   S
O565       C574 1.250       .   A
O562      Cu569 1.951       .   S
O562       C572 1.250       .   A
O563      Cu569 1.951       .   S
O563       C573 1.250       .   A
O561      Cu569 1.951       .   S
O561       C571 1.250       .   A
O365      Cu373 1.951       .   S
O365       C375 1.250       .   A
O366      Cu373 1.951       .   S
O366       C376 1.250       .   A
O367      Cu373 1.951       .   S
O367       C377 1.250       .   A
O368      Cu373 1.951       .   S
O368       C378 1.250       .   A
O369       C378 1.250       .   A
O369      Cu374 1.951       .   S
C1005     H1010 1.140       .   S
C1013     H1019 1.140       .   S
C602      C1397 1.540       .   S
O593       C602 1.250       .   A
O592       C602 1.250       .   A
O594       C601 1.251       .   A
C601      C1584 1.540       .   S
O591       C601 1.250       .   A
O595       C600 1.250       .   A
C600      C1577 1.540       .   S
O590       C600 1.250       .   A
C1376     H1381 1.140       .   S
C1375     H1380 1.140       .   S
C1378     H1382 1.140       .   S
O106       C109 1.250       .   A
O456      Cu458 1.951       .   S
O456       C459 1.250       .   A
C1318     H1322 1.140       .   S
C1316     H1321 1.140       .   S
C1628     H1632 1.140       .   S
C1613     C1614 1.540       .   A
C1613     C1618 1.540       .   A
O617       C627 1.250       .   A
O610      Cu612 1.951       .   S
C1596     C1597 1.540       .   A
C1595     C1596 1.540       .   A
O451      Cu457 1.951       .   S
O451       C461 1.250       .   A
O618       C628 1.250       .   A
O619       C629 1.250       .   A
O580      Cu584 1.951       .   S
O580       C587 1.251       .   A
O581      Cu584 1.951       .   S
O581       C586 1.250       .   A
O582      Cu584 1.951       .   S
O582       C585 1.250       .   A
C737       C738 1.540       .   A
C733       C738 1.540       .   A
C738       H742 1.140       .   S
C736       C737 1.540       .   A
C95        C737 1.540       .   S
C735       C736 1.540       .   A
C736       H741 1.140       .   S
C734       C735 1.540       .   A
C735       H740 1.140       .   S
C26        C734 1.540       .   S
C733       C734 1.540       .   A
C733       H739 1.140       .   S
O589      Cu597 1.951       .   S
O127       C137 1.250       .   A
O134       C137 1.250       .   A
C924       C137 1.540       .   S
C934       C139 1.540       .   S
O132       C139 1.251       .   A
O129       C139 1.250       .   A
O133       C138 1.250       .   A
O128       C138 1.250       .   A
O410       C420 1.250       .   A
O411       C420 1.250       .   A
C420      C1087 1.540       .   S
C1207     C1208 1.540       .   A
C1208     H1212 1.140       .   S
C1203     C1208 1.540       .   A
C1206     C1207 1.540       .   A
C1207      C336 1.540   1_455   S
C1205     C1206 1.540       .   A
C1206     H1211 1.140       .   S
C1205     H1210 1.140       .   S
C1204     C1205 1.540       .   A
C1203     C1204 1.540       .   A
C1204      C293 1.540       .   S
C1203     H1209 1.140       .   S
C678       H682 1.140       .   S
C675       H680 1.140       .   S
C676       H681 1.140       .   S
O31         C41 1.250       .   A
O31        Cu37 1.951       .   S
O30         C40 1.250       .   A
O30        Cu37 1.951       .   S
O33        Cu38 1.951       .   S
O33         C42 1.250       .   A
O32         C42 1.250       .   A
O32        Cu37 1.951       .   S
O35        Cu38 1.951       .   S
O35         C40 1.250       .   A
O34        Cu38 1.951       .   S
O34         C41 1.251       .   A
O36        Cu38 1.951       .   S
O36         C39 1.250       .   A
C557      C1547 1.540       .   S
C559       C997 1.540       .   S
C558      C1477 1.540   1_655   S
C895       C896 1.540       .   A
C895       H900 1.140       .   S
C894       C895 1.540       .   A
C1118     H1122 1.140       .   S
C1117     C1118 1.540       .   A
C953       H959 1.140       .   S
C251      C1117 1.540       .   S
C956       H961 1.140       .   S
C955       C956 1.540       .   A
C955       H960 1.140       .   S
C235      C1114 1.540       .   S
C1597     C1598 1.540       .   A
C1598     H1602 1.140       .   S
C1593     C1598 1.540       .   A
C1523     H1529 1.140       .   S
C1595     H1600 1.140       .   S
C1594     C1595 1.540       .   A
C1594      C628 1.540       .   S
C1593     C1594 1.540       .   A
C1593     H1599 1.140       .   S
C1376     C1377 1.540       .   A
C1377     C1378 1.540       .   A
C1375     C1376 1.540       .   A
C1374     C1375 1.540       .   A
C1373     C1374 1.540       .   A
C1373     H1379 1.140       .   S
C1373     C1378 1.540       .   A
C1253     H1259 1.140       .   S
C1574     C1575 1.540       .   A
C1575     C1576 1.540       .   A
C1575     H1580 1.140       .   S
C1573     C1574 1.540       .   A
C587      C1574 1.540       .   S
C1576     C1577 1.540       .   A
C1577     C1578 1.540       .   A
C1576     H1581 1.140       .   S
C1573     H1579 1.140       .   S
C1573     C1578 1.540       .   A
C1578     H1582 1.140       .   S
C996       C997 1.540       .   A
C997       C998 1.540       .   A
O354       C364 1.250       .   A
O354      Cu359 1.951       .   S
O382      Cu387 1.951       .   S
O379      Cu387 1.951       .   S
O381      Cu387 1.951       .   S
O380      Cu387 1.951       .   S
Cu387     Cu388 2.630       .   S
O383      Cu388 1.951       .   S
O386      Cu388 1.951       .   S
O384      Cu388 1.951       .   S
O385      Cu388 1.951       .   S
C1518     H1522 1.140       .   S
C995       C996 1.540       .   A
C996      H1001 1.140       .   S
C1023     H1029 1.140       .   S
O632      Cu639 1.951       .   S
O633      Cu639 1.951       .   S
O631      Cu639 1.951       .   S
O634      Cu639 1.951       .   S
Cu639     Cu640 2.630       .   S
C1173     H1179 1.140       .   S
C1168     H1172 1.140       .   S
C1165     H1170 1.140       .   S
C1166     H1171 1.140       .   S
C813       H819 1.140       .   S
C1568     H1572 1.140       .   S
O522      Cu527 1.951       .   S
O520      Cu527 1.951       .   S
O521      Cu527 1.951       .   S
Cu527     Cu528 2.630       .   S
O519      Cu527 1.951       .   S
C1565     H1570 1.140       .   S
C1566     H1571 1.140       .   S
O523      Cu528 1.951       .   S
O526      Cu528 1.951       .   S
O524      Cu528 1.951       .   S
O525      Cu528 1.951       .   S
C786       H791 1.140       .   S
O579      Cu584 1.951       .   S
O579       C588 1.250       .   A
O578       C588 1.250       .   A
O578      Cu583 1.951       .   S
C903       H909 1.140       .   S
O575       C585 1.250       .   A
O575      Cu583 1.951       .   S
O577       C587 1.250       .   A
O577      Cu583 1.951       .   S
O576       C586 1.250       .   A
O576      Cu583 1.951       .   S
O371       C376 1.250       .   A
O371      Cu374 1.951       .   S
O370       C377 1.251       .   A
O370      Cu374 1.951       .   S
C1365     H1370 1.140       .   S
C1366     H1371 1.140       .   S
C1368     H1372 1.140       .   S
C998      H1002 1.140       .   S
C995      H1000 1.140       .   S
Cu9        Cu10 2.630       .   S
O4          Cu9 1.951       .   S
O3          Cu9 1.951       .   S
O2          Cu9 1.951       .   S
O1          Cu9 1.951       .   S
C1003     H1009 1.140       .   S
O119      Cu122 1.951       .   S
O118      Cu122 1.951       .   S
C1388     H1392 1.140       .   S
C1385     H1390 1.140       .   S
C1386     H1391 1.140       .   S
O113      Cu121 1.951       .   S
O117      Cu122 1.951       .   S
O116      Cu121 1.951       .   S
O621       C630 1.250       .   A
O620       C630 1.250       .   A
C1604      C630 1.540       .   S
C1393     H1399 1.140       .   S
C843       C848 1.540       .   A
C843       C844 1.540       .   A
C843       H849 1.140       .   S
O607      Cu612 1.951       .   S
O606      Cu611 1.951       .   S
O605      Cu611 1.951       .   S
O604      Cu611 1.951       .   S
O603      Cu611 1.951       .   S
C845       H850 1.140       .   S
C844       C845 1.540       .   A
C845       C846 1.540       .   A
O609      Cu612 1.951       .   S
O608      Cu612 1.951       .   S
O592      Cu597 1.951       .   S
O591      Cu597 1.951       .   S
O590      Cu597 1.951       .   S
C703       H709 1.140       .   S
C703       C704 1.540       .   A
C846       H851 1.140       .   S
C846       C847 1.540       .   A
C706       H711 1.140       .   S
C706       C707 1.540       .   A
C705       C706 1.540       .   A
C707       C154 1.540       .   S
C704        C14 1.540       .   S
C704       C705 1.540       .   A
C705       H710 1.140       .   S
C848       H852 1.140       .   S
C847       C848 1.540       .   A
C1143     C1148 1.540       .   A
C1143     H1149 1.140       .   S
C1143     C1144 1.540       .   A
O131       C140 1.250       .   A
O130       C140 1.250       .   A
C140       C897 1.540       .   S
O407       C417 1.250       .   A
O414       C417 1.250       .   A
O413       C418 1.250       .   A
O408       C418 1.250       .   A
O412       C419 1.251       .   A
C419      C1327 1.540   1_556   S
O409       C419 1.250       .   A
O379       C389 1.250       .   A
O386       C389 1.250       .   A
C389      C1304 1.540       .   S
C1213     C1218 1.540       .   A
C1218     H1222 1.140       .   S
C1217     C1218 1.540       .   A
C893       C898 1.540       .   A
C897       C898 1.540       .   A
C898       H902 1.140       .   S
C893       H899 1.140       .   S
C893       C894 1.540       .   A
C1213     H1219 1.140       .   S
C1213     C1214 1.540       .   A
C307      C1214 1.540       .   S
C1214     C1215 1.540       .   A
C1215     C1216 1.540       .   A
C1216     H1221 1.140       .   S
C1216     C1217 1.540       .   A
C319      C1217 1.540   1_655   S
C693       H699 1.140       .   S
O29         C39 1.250       .   A
O29        Cu37 1.951       .   S
O22        Cu24 1.951       .   S
O22         C25 1.250       .   A
C685       H690 1.140       .   S
O20        Cu24 1.951       .   S
O20         C27 1.251       .   A
O21        Cu24 1.951       .   S
O21         C26 1.250       .   A
C560      C1527 1.540   1_554   S
O48        Cu52 1.951       .   S
O49        Cu52 1.951       .   S
O50        Cu52 1.951       .   S
Cu51       Cu52 2.630       .   S
O47        Cu52 1.951       .   S
O43        Cu51 1.951       .   S
O44        Cu51 1.951       .   S
O45        Cu51 1.951       .   S
O46        Cu51 1.951       .   S
C966       C967 1.540       .   A
C965       C966 1.540       .   A
C966       H971 1.140       .   S
C1104     C1105 1.540       .   A
C1105     H1110 1.140       .   S
C1105     C1106 1.540       .   A
C1106     C1107 1.540       .   A
C1106     H1111 1.140       .   S
C391      C1107 1.540       .   S
C1107     C1108 1.540       .   A
C963       C964 1.540       .   A
C963       H969 1.140       .   S
C963       C968 1.540       .   A
C1103     C1104 1.540       .   A
C1103     C1108 1.540       .   A
C1103     H1109 1.140       .   S
C1108     H1112 1.140       .   S
C967       C968 1.540       .   A
C968       H972 1.140       .   S
O144      Cu149 1.951       .   S
O144       C154 1.250       .   A
O145      Cu150 1.951       .   S
O145       C154 1.250       .   A
C1583     C1588 1.540       .   A
C1588     H1592 1.140       .   S
C1587     C1588 1.540       .   A
C1583     H1589 1.140       .   S
C1583     C1584 1.540       .   A
C1584     C1585 1.540       .   A
C1585     H1590 1.140       .   S
C1585     C1586 1.540       .   A
C1586     H1591 1.140       .   S
C1586     C1587 1.540       .   A
O283      Cu289 1.951       .   S
O282      Cu289 1.951       .   S
O281      Cu289 1.951       .   S
Cu289     Cu290 2.630       .   S
O284      Cu289 1.951       .   S
C1363     C1368 1.540       .   A
C1363     C1364 1.540       .   A
C1363     H1369 1.140       .   S
C1364     C1365 1.540       .   A
C1365     C1366 1.540       .   A
C1366     C1367 1.540       .   A
C1367     C1368 1.540       .   A
C574      C1367 1.540       .   S
C1566     C1567 1.540       .   A
C1565     C1566 1.540       .   A
C1567     C1568 1.540       .   A
C1564     C1565 1.540       .   A
C1563     C1564 1.540       .   A
C1564      C573 1.540       .   S
C1563     C1568 1.540       .   A
O351      Cu359 1.951       .   S
O353      Cu359 1.951       .   S
O352      Cu359 1.951       .   S
Cu359     Cu360 2.630       .   S
C1493     H1499 1.140       .   S
C1486     H1491 1.140       .   S
C1485     H1490 1.140       .   S
C1488     H1492 1.140       .   S
O505      Cu513 1.951       .   S
O506      Cu513 1.951       .   S
O507      Cu513 1.951       .   S
O508      Cu513 1.951       .   S
Cu513     Cu514 2.630       .   S
C1543     H1549 1.140       .   S
O512      Cu514 1.951       .   S
O509      Cu514 1.951       .   S
O511      Cu514 1.951       .   S
O510      Cu514 1.951       .   S
C1538     H1542 1.140       .   S
C1536     H1541 1.140       .   S
C1535     H1540 1.140       .   S
C973       H979 1.140       .   S
C965       H970 1.140       .   S
O298      Cu303 1.951       .   S
O298       C308 1.250       .   A
O299       C308 1.250       .   A
O299      Cu304 1.951       .   S
O184       C194 1.250       .   A
O184      Cu191 1.951       .   S
O295      Cu303 1.951       .   S
O295       C305 1.250       .   A
O296       C306 1.250       .   A
O296      Cu303 1.951       .   S
O297      Cu303 1.951       .   S
O297       C307 1.250       .   A
C835       C836 1.540       .   A
C836       C837 1.540       .   A
C836       H841 1.140       .   S
C837       C838 1.540       .   A
O344      Cu346 1.951       .   S
O344       C347 1.250       .   A
O342      Cu346 1.951       .   S
O342       C349 1.251       .   A
O343      Cu346 1.951       .   S
O343       C348 1.250       .   A
O340      Cu345 1.951       .   S
O340       C350 1.250       .   A
O341      Cu346 1.951       .   S
O341       C350 1.250       .   A
O127      Cu135 1.951       .   S
C1026     H1031 1.140       .   S
C1025     H1030 1.140       .   S
C795       H800 1.140       .   S
C796       H801 1.140       .   S
O120      Cu122 1.951       .   S
C1033     H1039 1.140       .   S
C803       H809 1.140       .   S
O128      Cu135 1.951       .   S
O129      Cu135 1.951       .   S
C1507      C629 1.540       .   S
O622       C629 1.251       .   A
O623       C628 1.250       .   A
C934       C935 1.540       .   A
C933       C934 1.540       .   A
C936       C937 1.540       .   A
C937       C938 1.540       .   A
C937       C487 1.540       .   S
C1287      C627 1.540       .   S
O624       C627 1.250       .   A
C935       C936 1.540       .   A
C936       H941 1.140       .   S
C838       H842 1.140       .   S
C833       C838 1.540       .   A
C933       C938 1.540       .   A
O632       C642 1.250       .   A
O633       C643 1.250       .   A
C716       C717 1.540       .   A
C717       C718 1.540       .   A
C27        C717 1.540       .   S
O631       C641 1.250       .   A
O636      Cu640 1.951       .   S
O636       C643 1.251       .   A
O637      Cu640 1.951       .   S
O637       C642 1.250       .   A
O634       C644 1.250       .   A
O635       C644 1.250       .   A
O635      Cu640 1.951       .   S
O638      Cu640 1.951       .   S
O638       C641 1.250       .   A
C718       H722 1.140       .   S
C713       C718 1.540       .   A
C753       H759 1.140       .   S
C745       H750 1.140       .   S
C746       H751 1.140       .   S
C748       H752 1.140       .   S
C917       C153 1.540       .   S
O146       C153 1.251       .   A
O143       C153 1.250       .   A
C964       C152 1.540       .   S
O147       C152 1.250       .   A
O142       C152 1.250       .   A
O148       C151 1.250       .   A
O141       C151 1.250       .   A
O395       C405 1.250       .   A
C405      C1324 1.540       .   S
O398       C405 1.251       .   A
O394       C404 1.250       .   A
O399       C404 1.250       .   A
C1334      C404 1.540       .   S
O381       C391 1.250       .   A
O384       C391 1.251       .   A
O380       C390 1.250       .   A
C1257      C390 1.540   1_545   S
O385       C390 1.250       .   A
O382       C392 1.250       .   A
O383       C392 1.250       .   A
C1297      C392 1.540   1_556   S
C896       H901 1.140       .   S
O62        Cu66 1.951       .   S
O63        Cu66 1.951       .   S
O61        Cu66 1.951       .   S
O64        Cu66 1.951       .   S
Cu65       Cu66 2.630       .   S
O59        Cu65 1.951       .   S
O58        Cu65 1.951       .   S
O57        Cu65 1.951       .   S
O60        Cu65 1.951       .   S
C1554      C571 1.540       .   S
C1173     C1178 1.540       .   A
C1173     C1174 1.540       .   A
C975       H980 1.140       .   S
C974       C975 1.540       .   A
C975       C976 1.540       .   A
C1174     C1175 1.540       .   A
C1174      C266 1.540       .   S
C1177     C1178 1.540       .   A
C1177      C476 1.540       .   S
C1176     C1177 1.540       .   A
C1175     C1176 1.540       .   A
C884       C885 1.540       .   A
C885       C886 1.540       .   A
C885       H890 1.140       .   S
C883       C884 1.540       .   A
C886       C887 1.540       .   A
C887       C888 1.540       .   A
C529       C887 1.540       .   S
C886       H891 1.140       .   S
C883       C888 1.540       .   A
C883       H889 1.140       .   S
C888       H892 1.140       .   S
C1398     H1402 1.140       .   S
C1397     C1398 1.540       .   A
C1393     C1398 1.540       .   A
C1394     C1395 1.540       .   A
C1395     H1400 1.140       .   S
C1395     C1396 1.540       .   A
C459      C1394 1.540       .   S
C1393     C1394 1.540       .   A
C1396     C1397 1.540       .   A
C1396     H1401 1.140       .   S
C1553     H1559 1.140       .   S
C1553     C1558 1.540       .   A
C1553     C1554 1.540       .   A
C1557     C1558 1.540       .   A
C1556     C1557 1.540       .   A
C1557      C585 1.540       .   S
C1555     C1556 1.540       .   A
C1554     C1555 1.540       .   A
C1004     C1005 1.540       .   A
C182      C1004 1.540       .   S
C1003     C1004 1.540       .   A
C1007      C194 1.540       .   S
O314      Cu318 1.951       .   S
O316      Cu318 1.951       .   S
Cu317     Cu318 2.630       .   S
C1483     C1488 1.540       .   A
C1483     H1489 1.140       .   S
C1483     C1484 1.540       .   A
C1484     C1485 1.540       .   A
C1485     C1486 1.540       .   A
C1484      C518 1.540       .   S
C588      C1487 1.540       .   S
C1487     C1488 1.540       .   A
C1486     C1487 1.540       .   A
Cu345     Cu346 2.630       .   S
Cu611     Cu612 2.630       .   S
O337      Cu345 1.951       .   S
O339      Cu345 1.951       .   S
O338      Cu345 1.951       .   S
O372       C375 1.250       .   A
O372      Cu374 1.951       .   S
C1268     H1272 1.140       .   S
O288      Cu290 1.951       .   S
O287      Cu290 1.951       .   S
O286      Cu290 1.951       .   S
O285      Cu290 1.951       .   S
C1478     H1482 1.140       .   S
C1475     H1480 1.140       .   S
C1476     H1481 1.140       .   S
C988       H992 1.140       .   S
C1545     H1550 1.140       .   S
C1546     H1551 1.140       .   S
C1548     H1552 1.140       .   S
Cu499     Cu500 2.630       .   S
O288       C291 1.250       .   A
O283       C293 1.250       .   A
O282       C292 1.250       .   A
O281       C291 1.250       .   A
O287       C292 1.250       .   A
O286       C293 1.251       .   A
O285       C294 1.250       .   A
O284       C294 1.250       .   A
O358      Cu360 1.951       .   S
O358       C361 1.250       .   A
C1145     H1150 1.140       .   S
C1146     H1151 1.140       .   S
C1148     H1152 1.140       .   S
O351       C361 1.250       .   A
O353       C363 1.250       .   A
O352       C362 1.250       .   A
O355       C364 1.250       .   A
O355      Cu360 1.951       .   S
C1153     H1159 1.140       .   S
O357      Cu360 1.951       .   S
O357       C362 1.250       .   A
O356      Cu360 1.951       .   S
O356       C363 1.251       .   A
O131      Cu136 1.951       .   S
O130      Cu135 1.951       .   S
O133      Cu136 1.951       .   S
O132      Cu136 1.951       .   S
O134      Cu136 1.951       .   S
C806       H811 1.140       .   S
C805       H810 1.140       .   S
C1015     H1020 1.140       .   S
C1016     H1021 1.140       .   S
C1018     H1022 1.140       .   S
C763       C768 1.540       .   A
C763       H769 1.140       .   S
C763       C764 1.540       .   A
C40        C764 1.540       .   S
C764       C765 1.540       .   A
C765       H770 1.140       .   S
C765       C766 1.540       .   A
C766       H771 1.140       .   S
C766       C767 1.540       .   A
C767       C768 1.540       .   A
C768       H772 1.140       .   S
C84        C844 1.540       .   S
O115      Cu121 1.951       .   S
O114      Cu121 1.951       .   S
O159       C168 1.250       .   A
O158       C168 1.250       .   A
O156       C166 1.250       .   A
C166       C967 1.540       .   S
O157       C167 1.250       .   A
C167       C974 1.540       .   S
C165       C984 1.540       .   S
O155       C165 1.250       .   A
C1274      C364 1.540       .   S
C361       C987 1.540       .   S
C362      C1244 1.540   1_556   S
C363      C1264 1.540       .   S
C180       C787 1.540       .   S
C181       C994 1.540       .   S
C1166     C1167 1.540       .   A
C1165     C1166 1.540       .   A
O74        Cu79 1.951       .   S
O71        Cu79 1.951       .   S
O73        Cu79 1.951       .   S
O72        Cu79 1.951       .   S
C501      C1457 1.540   1_554   S
C502       C907 1.540       .   S
C503      C1464 1.540       .   S
C504      C1417 1.540   1_545   S
C1163     C1168 1.540       .   A
C1167     C1168 1.540       .   A
C1163     C1164 1.540       .   A
C987       C988 1.540       .   A
C983       C988 1.540       .   A
C1167      C335 1.540       .   S
C1164      C263 1.540       .   S
C1164     C1165 1.540       .   A
C984       C985 1.540       .   A
C983       C984 1.540       .   A
C985       C986 1.540       .   A
C985       H990 1.140       .   S
C986       C987 1.540       .   A
C986       H991 1.140       .   S
C983       H989 1.140       .   S
C1415     H1420 1.140       .   S
C863       C868 1.540       .   A
C868       H872 1.140       .   S
C867       C868 1.540       .   A
C1017      C210 1.540       .   S
O201       C210 1.250       .   A
O200       C210 1.250       .   A
C863       H869 1.140       .   S
C1387     C1388 1.540       .   A
C1383     C1388 1.540       .   A
C1386     C1387 1.540       .   A
C1385     C1386 1.540       .   A
C672      C1387 1.540       .   S
C1384     C1385 1.540       .   A
C1383     C1384 1.540       .   A
C1383     H1389 1.140       .   S
C863       C864 1.540       .   A
C1547     C1548 1.540       .   A
C1543     C1548 1.540       .   A
C1463     H1469 1.140       .   S
C1017     C1018 1.540       .   A
C1013     C1018 1.540       .   A
C1016     C1017 1.540       .   A
C1015     C1016 1.540       .   A
C179      C1014 1.540       .   S
C1014     C1015 1.540       .   A
C1013     C1014 1.540       .   A
C1546     C1547 1.540       .   A
C1543     C1544 1.540       .   A
C866       C867 1.540       .   A
C515       C867 1.540       .   S
C866       H871 1.140       .   S
C865       C866 1.540       .   A
C1493     C1498 1.540       .   A
C1493     C1494 1.540       .   A
C1496     C1497 1.540       .   A
C1495     C1496 1.540       .   A
C1497      C530 1.540   1_554   S
C1497     C1498 1.540       .   A
C1494      C516 1.540       .   S
C1494     C1495 1.540       .   A
C98        C864 1.540       .   S
C864       C865 1.540       .   A
Cu373     Cu374 2.630       .   S
C1618     H1622 1.140       .   S
O6          C13 1.251       .   A
O3          C13 1.250       .   A
C684        C13 1.540       .   S
O7          C12 1.250       .   A
C12        C694 1.540       .   S
O2          C12 1.250       .   A
C11        C674 1.540       .   S
O1          C11 1.250       .   A
O5          C14 1.250       .   A
O4          C14 1.250       .   A
Cu569     Cu570 2.630       .   S
O257      Cu262 1.951       .   S
O257       C266 1.250       .   A
O395      Cu401 1.951       .   S
O394      Cu401 1.951       .   S
O396      Cu401 1.951       .   S
O393      Cu401 1.951       .   S
Cu401     Cu402 2.630       .   S
O397      Cu402 1.951       .   S
O399      Cu402 1.951       .   S
O398      Cu402 1.951       .   S
O400      Cu402 1.951       .   S
C1053     H1059 1.140       .   S
C815       H820 1.140       .   S
C1046     H1051 1.140       .   S
C1045     H1050 1.140       .   S
C1048     H1052 1.140       .   S
O438      Cu443 1.951       .   S
O316       C319 1.250       .   A
O435      Cu443 1.951       .   S
O436      Cu443 1.951       .   S
O437      Cu443 1.951       .   S
C945       H950 1.140       .   S
C1057     C1058 1.540       .   A
C1057      C406 1.540       .   S
C773       C778 1.540       .   A
C773       H779 1.140       .   S
C773       C774 1.540       .   A
O659      Cu667 1.951       .   S
C277       C777 1.540       .   S
C777       C778 1.540       .   A
C776       C777 1.540       .   A
C775       C776 1.540       .   A
C774       C775 1.540       .   A
C774        C55 1.540       .   S
O650       C657 1.251       .   A
O651       C656 1.250       .   A
O652       C655 1.250       .   A
O188      Cu192 1.951       .   S
O189      Cu192 1.951       .   S
O190      Cu192 1.951       .   S
Cu191     Cu192 2.630       .   S
O187      Cu192 1.951       .   S
O183      Cu191 1.951       .   S
O185      Cu191 1.951       .   S
O186      Cu191 1.951       .   S
C1544     C1545 1.540       .   A
C1545     C1546 1.540       .   A
C1294      C377 1.540       .   S
C1277      C376 1.540   1_545   S
C1284      C375 1.540       .   S
C196      C1034 1.540       .   S
O186       C196 1.250       .   A
O187       C196 1.250       .   A
O188       C195 1.251       .   A
O185       C195 1.250       .   A
C1024      C195 1.540       .   S
O189       C194 1.250       .   A
O183       C193 1.250       .   A
O190       C193 1.250       .   A
C193      C1044 1.540       .   S
C1445     H1450 1.140       .   S
O508       C518 1.250       .   A
O509       C518 1.250       .   A
C1448     H1452 1.140       .   S
C517      C1474 1.540       .   S
O507       C517 1.250       .   A
O510       C517 1.251       .   A
O506       C516 1.250       .   A
O511       C516 1.250       .   A
O505       C515 1.250       .   A
O512       C515 1.250       .   A
C1623     C1628 1.540       .   A
O99        C109 1.250       .   A
C993       C998 1.540       .   A
C1624     C1625 1.540       .   A
C1625     H1630 1.140       .   S
C1624      C656 1.540       .   S
C1623     C1624 1.540       .   A
C1155     C1156 1.540       .   A
C1154     C1155 1.540       .   A
C1154      C265 1.540       .   S
C1153     C1154 1.540       .   A
C1153     C1158 1.540       .   A
O92         C95 1.250       .   A
C1623     H1629 1.140       .   S
O90         C97 1.251       .   A
C915       H920 1.140       .   S
O197       C207 1.250       .   A
O204       C207 1.250       .   A
O202       C209 1.251       .   A
O199       C209 1.250       .   A
C744       C209 1.540       .   S
O203       C208 1.250       .   A
C208      C1064 1.540       .   S
O198       C208 1.250       .   A
C1533     C1538 1.540       .   A
C1537     C1538 1.540       .   A
C1023     C1028 1.540       .   A
C1028     H1032 1.140       .   S
C1027     C1028 1.540       .   A
C1023     C1024 1.540       .   A
C1533     C1534 1.540       .   A
C1533     H1539 1.140       .   S
C1026     C1027 1.540       .   A
C1027      C334 1.540       .   S
C1025     C1026 1.540       .   A
C641      C1537 1.540       .   S
C1536     C1537 1.540       .   A
C1024     C1025 1.540       .   A
C1444     C1445 1.540       .   A
C1445     C1446 1.540       .   A
C489      C1444 1.540       .   S
C1443     C1444 1.540       .   A
C1446     C1447 1.540       .   A
C658      C1447 1.540       .   S
C1447     C1448 1.540       .   A
C1446     H1451 1.140       .   S
C1443     C1448 1.540       .   A
C1443     H1449 1.140       .   S
Cu583     Cu584 2.630       .   S
O412      Cu416 1.951       .   S
O413      Cu416 1.951       .   S
Cu415     Cu416 2.630       .   S
O411      Cu416 1.951       .   S
O414      Cu416 1.951       .   S
O407      Cu415 1.951       .   S
O409      Cu415 1.951       .   S
O408      Cu415 1.951       .   S
O410      Cu415 1.951       .   S
O314       C321 1.251       .   A
C1125     H1130 1.140       .   S
C1043     H1049 1.140       .   S
C833       H839 1.140       .   S
C1038     H1042 1.140       .   S
C896       C897 1.540       .   A
C1035     H1040 1.140       .   S
C1036     H1041 1.140       .   S
C826       H831 1.140       .   S
C825       H830 1.140       .   S
O428       C431 1.250       .   A
O428      Cu430 1.951       .   S
O397       C406 1.250       .   A
O396       C406 1.250       .   A
O423      Cu429 1.951       .   S
O422      Cu429 1.951       .   S
O393       C403 1.250       .   A
C935       H940 1.140       .   S
C938       H942 1.140       .   S
O649       C658 1.250       .   A
O648       C658 1.250       .   A
C747       C748 1.540       .   A
C746       C747 1.540       .   A
C745       C746 1.540       .   A
C747        C41 1.540       .   S
C744       C745 1.540       .   A
O647       C657 1.250       .   A
O646       C656 1.250       .   A
O645       C655 1.250       .   A
C756       H761 1.140       .   S
C755       H760 1.140       .   S
C758       H762 1.140       .   S
C698       H702 1.140       .   S
C693       C698 1.540       .   A
C697       C698 1.540       .   A
C1254      C348 1.540       .   S
O338       C348 1.250       .   A
C349      C1247 1.540       .   S
O339       C349 1.250       .   A
C693       C694 1.540       .   A
C694       C695 1.540       .   A
O337       C347 1.250       .   A
C696       H701 1.140       .   S
C695       C696 1.540       .   A
C696       C697 1.540       .   A
C697        C69 1.540       .   S
C686       H691 1.140       .   S
C688       H692 1.140       .   S
O526       C529 1.250       .   A
O519       C529 1.250       .   A
C695       H700 1.140       .   S
O7         Cu10 1.951       .   S
O6         Cu10 1.951       .   S
O5         Cu10 1.951       .   S
C1147     C1148 1.540       .   A
O88         C98 1.250       .   A
O89         C98 1.250       .   A
O85         C95 1.250       .   A
O86         C96 1.250       .   A
O87         C97 1.250       .   A
C250      C1144 1.540       .   S
C1144     C1145 1.540       .   A
C1145     C1146 1.540       .   A
C1146     C1147 1.540       .   A
C1147      C264 1.540       .   S
C236      C1104 1.540       .   S
C237      C1094 1.540       .   S
C1034     C1035 1.540       .   A
C1033     C1034 1.540       .   A
C1035     C1036 1.540       .   A
C1036     C1037 1.540       .   A
C1037     C1038 1.540       .   A
C1037      C222 1.540       .   S
C1033     C1038 1.540       .   A
C964       C965 1.540       .   A
C834       C835 1.540       .   A
C81        C834 1.540       .   S
C833       C834 1.540       .   A
C835       H840 1.140       .   S
C1523     C1528 1.540       .   A
C1528     H1532 1.140       .   S
C1527     C1528 1.540       .   A
Cu177     Cu178 2.630       .   S
C1523     C1524 1.540       .   A
C1526     H1531 1.140       .   S
C1526     C1527 1.540       .   A
C1525     C1526 1.540       .   A
C1524     C1525 1.540       .   A
C1525     H1530 1.140       .   S
C1456     C1457 1.540       .   A
C1455     C1456 1.540       .   A
C1456     H1461 1.140       .   S
C1457     C1458 1.540       .   A
C488      C1454 1.540       .   S
C1454     C1455 1.540       .   A
C1453     C1454 1.540       .   A
C1455     H1460 1.140       .   S
C1453     H1459 1.140       .   S
C1453     C1458 1.540       .   A
C1458     H1462 1.140       .   S
C807       C808 1.540       .   A
C808       H812 1.140       .   S
C803       C808 1.540       .   A
Cu555     Cu556 2.630       .   S
C687        C39 1.540   1_455   S
O218      Cu220 1.951       .   S
Cu219     Cu220 2.630       .   S
O215      Cu220 1.951       .   S
O216      Cu220 1.951       .   S
O217      Cu220 1.951       .   S
C804       C805 1.540       .   A
C804        C68 1.540       .   S
C803       C804 1.540       .   A
C806       C807 1.540       .   A
C83        C807 1.540       .   S
C805       C806 1.540       .   A
O258      Cu262 1.951       .   S
O258       C265 1.251       .   A
O259      Cu262 1.951       .   S
O259       C264 1.250       .   A
O254      Cu261 1.951       .   S
O254       C264 1.250       .   A
O255      Cu261 1.951       .   S
O255       C265 1.250       .   A
O256      Cu261 1.951       .   S
O256       C266 1.250       .   A
O253      Cu261 1.951       .   S
O253       C263 1.250       .   A
Cu429     Cu430 2.630       .   S
C1098     H1102 1.140       .   S
C1096     H1101 1.140       .   S
C1095     H1100 1.140       .   S
O442      Cu444 1.951       .   S
C753       C758 1.540       .   A
C757       C758 1.540       .   A
C753       C754 1.540       .   A
C754       C755 1.540       .   A
C755       C756 1.540       .   A
C53        C754 1.540   1_565   S
C42        C757 1.540       .   S
C756       C757 1.540       .   A
C1068     H1072 1.140       .   S
C1066     H1071 1.140       .   S
C1065     H1070 1.140       .   S
C1073     H1079 1.140       .   S
C713       H719 1.140       .   S
C683       C688 1.540       .   A
C687       C688 1.540       .   A
C683       C684 1.540       .   A
C686       C687 1.540       .   A
C685       C686 1.540       .   A
C684       C685 1.540       .   A
O521       C531 1.250       .   A
C1504      C531 1.540       .   S
O524       C531 1.251       .   A
O520       C530 1.250       .   A
O525       C530 1.250       .   A
Cu23       Cu24 2.630       .   S
O522       C532 1.250       .   A
O523       C532 1.250       .   A
C1514      C532 1.540       .   S
C1603     C1608 1.540       .   A
C1607     C1608 1.540       .   A
C1603     C1604 1.540       .   A
C1606     C1607 1.540       .   A
C1607      C642 1.540       .   S
C1605     C1606 1.540       .   A
C1604     C1605 1.540       .   A
O202      Cu206 1.951       .   S
C224      C1084 1.540       .   S
O214       C224 1.250       .   A
O215       C224 1.250       .   A
O218       C221 1.250       .   A
O211       C221 1.250       .   A
C221      C1074 1.540       .   S
C223      C1067 1.540       .   S
O213       C223 1.250       .   A
O216       C223 1.251       .   A
O212       C222 1.250       .   A
O217       C222 1.250       .   A
C1516     C1517 1.540       .   A
C1517     C1518 1.540       .   A
C1515     C1516 1.540       .   A
C1516     H1521 1.140       .   S
C1043     C1048 1.540       .   A
C1043     C1044 1.540       .   A
C1514     C1515 1.540       .   A
C1513     C1514 1.540       .   A
C1513     C1518 1.540       .   A
C1044     C1045 1.540       .   A
C1047     C1048 1.540       .   A
C1046     C1047 1.540       .   A
C1045     C1046 1.540       .   A
O204      Cu206 1.951       .   S
C1286     C1287 1.540       .   A
C1287     C1288 1.540       .   A
C1285     C1286 1.540       .   A
C1284     C1285 1.540       .   A
C1283     C1284 1.540       .   A
C1283     C1288 1.540       .   A
Cu163     Cu164 2.630       .   S
O159      Cu164 1.951       .   S
O157      Cu163 1.951       .   S
O156      Cu163 1.951       .   S
O155      Cu163 1.951       .   S
O158      Cu163 1.951       .   S
C865       H870 1.140       .   S
C1463     C1468 1.540       .   A
C1463     C1464 1.540       .   A
C1467     C1468 1.540       .   A
C1466     C1467 1.540       .   A
C1466     H1471 1.140       .   S
C1465     C1466 1.540       .   A
C1465     H1470 1.140       .   S
C1464     C1465 1.540       .   A
Cu303     Cu304 2.630       .   S
C1468     H1472 1.140       .   S
C1193     C1198 1.540       .   A
C1193     C1194 1.540       .   A
C1197     C1198 1.540       .   A
C1196     C1197 1.540       .   A
C305      C1197 1.540   1_545   S
C1196     H1201 1.140       .   S
C1195     C1196 1.540       .   A
C1195     H1200 1.140       .   S
C1194     C1195 1.540       .   A
C1194      C291 1.540       .   S
C1198     H1202 1.140       .   S
C823       H829 1.140       .   S
C25        C677 1.540   1_565   S
O535      Cu541 1.951       .   S
O534      Cu541 1.951       .   S
Cu541     Cu542 2.630       .   S
O536      Cu541 1.951       .   S
O533      Cu541 1.951       .   S
O537      Cu542 1.951       .   S
O539      Cu542 1.951       .   S
O538      Cu542 1.951       .   S
Cu233     Cu234 2.630       .   S
O439      Cu444 1.951       .   S
O246       C249 1.250       .   A
O246      Cu248 1.951       .   S
O245       C250 1.250       .   A
O245      Cu248 1.951       .   S
O244       C251 1.251       .   A
O244      Cu248 1.951       .   S
O243       C252 1.250       .   A
O243      Cu248 1.951       .   S
O242      Cu247 1.951       .   S
O242       C252 1.250       .   A
O241      Cu247 1.951       .   S
O241       C251 1.250       .   A
O240      Cu247 1.951       .   S
O240       C250 1.250       .   A
C1438     H1442 1.140       .   S
C1435     H1440 1.140       .   S
C1436     H1441 1.140       .   S
O400       C403 1.250       .   A
C797       C431 1.540       .   S
C1337      C434 1.540   1_655   S
O661      Cu667 1.951       .   S
O661       C671 1.250       .   A
O660      Cu667 1.951       .   S
O660       C670 1.250       .   A
O663       C672 1.250       .   A
O663      Cu668 1.951       .   S
O662       C672 1.250       .   A
O662      Cu667 1.951       .   S
O665       C670 1.250       .   A
O665      Cu668 1.951       .   S
O664       C671 1.251       .   A
O664      Cu668 1.951       .   S
O666      Cu668 1.951       .   S
C1515     H1520 1.140       .   S
O454      Cu458 1.951       .   S
O454       C461 1.251       .   A
O455      Cu458 1.951       .   S
O455       C460 1.250       .   A
C1058     H1062 1.140       .   S
C1063     H1069 1.140       .   S
C320       C927 1.540       .   S
C322      C1077 1.540       .   S
Cu37       Cu38 2.630       .   S
C783       C788 1.540       .   A
C783       C784 1.540       .   A
C786       C787 1.540       .   A
C785       C786 1.540       .   A
C787       C788 1.540       .   A
C784        C54 1.540       .   S
C784       C785 1.540       .   A
C1053     C1058 1.540       .   A
C1503     C1508 1.540       .   A
C1503     C1504 1.540       .   A
C1504     C1505 1.540       .   A
C1505     C1506 1.540       .   A
C1506     C1507 1.540       .   A
C1507     C1508 1.540       .   A
C1293     C1298 1.540       .   A
C1293     C1294 1.540       .   A
C1294     C1295 1.540       .   A
C1295     H1300 1.140       .   S
C1295     C1296 1.540       .   A
C1296     H1301 1.140       .   S
C1296     C1297 1.540       .   A
C1297     C1298 1.540       .   A
C1298     H1302 1.140       .   S
O146      Cu150 1.951       .   S
O147      Cu150 1.951       .   S
O148      Cu150 1.951       .   S
Cu149     Cu150 2.630       .   S
C1614     C1615 1.540       .   A
C1614      C644 1.540       .   S
C1615     C1616 1.540       .   A
C1615     H1620 1.140       .   S
C1616     C1617 1.540       .   A
C1616     H1621 1.140       .   S
C1617      C657 1.540       .   S
C1617     C1618 1.540       .   A
O327      Cu332 1.951       .   S
O328      Cu332 1.951       .   S
O329      Cu332 1.951       .   S
Cu331     Cu332 2.630       .   S
O330      Cu332 1.951       .   S
O324      Cu331 1.951       .   S
O325      Cu331 1.951       .   S
O326      Cu331 1.951       .   S
O323      Cu331 1.951       .   S
C1477     C1478 1.540       .   A
C1473     C1478 1.540       .   A
C1474     C1475 1.540       .   A
C1473     C1474 1.540       .   A
C1475     C1476 1.540       .   A
C1476     C1477 1.540       .   A
C1473     H1479 1.140       .   S
C1187     C1188 1.540       .   A
C1183     C1188 1.540       .   A
C1184     C1185 1.540       .   A
C1184      C461 1.540       .   S
C1183     C1184 1.540       .   A
C1185     C1186 1.540       .   A
C1186     C1187 1.540       .   A
C56        C714 1.540   1_655   S
O46         C56 1.250       .   A
O47         C56 1.250       .   A
O48         C55 1.251       .   A
O45         C55 1.250       .   A
O49         C54 1.250       .   A
O44         C54 1.250       .   A
O43         C53 1.250       .   A
O50         C53 1.250       .   A
O203      Cu206 1.951       .   S
O201      Cu206 1.951       .   S
Cu205     Cu206 2.630       .   S
O199      Cu205 1.951       .   S
O198      Cu205 1.951       .   S
O197      Cu205 1.951       .   S
O200      Cu205 1.951       .   S
O272      Cu276 1.951       .   S
O272       C279 1.251       .   A
O273      Cu276 1.951       .   S
O273       C278 1.250       .   A
O270      Cu275 1.951       .   S
O271      Cu276 1.951       .   S
O274       C277 1.250       .   A
O274      Cu276 1.951       .   S
C306       C827 1.540       .   S
C826       C827 1.540       .   A
C827       C828 1.540       .   A
C825       C826 1.540       .   A
Cu443     Cu444 2.630       .   S
O441      Cu444 1.951       .   S
O440      Cu444 1.951       .   S
C824       C825 1.540       .   A
C823       C824 1.540       .   A
C82        C824 1.540       .   S
O470      Cu472 1.951       .   S
O470       C473 1.250       .   A
C1303     H1309 1.140       .   S
O477      Cu485 1.951       .   S
O477       C487 1.250       .   A
O478      Cu485 1.951       .   S
O478       C488 1.250       .   A
O479      Cu485 1.951       .   S
O479       C489 1.250       .   A
C1266     H1271 1.140       .   S
C1265     H1270 1.140       .   S
C993       H999 1.140       .   S
C1273     H1279 1.140       .   S
C1093     H1099 1.140       .   S
C1086     H1091 1.140       .   S
C1085     H1090 1.140       .   S
C1088     H1092 1.140       .   S
O330       C333 1.250       .   A
O323       C333 1.250       .   A
O326       C336 1.250       .   A
O327       C336 1.250       .   A
O325       C335 1.250       .   A
O328       C335 1.251       .   A
O324       C334 1.250       .   A
O329       C334 1.250       .   A
C1313     H1319 1.140       .   S
C797       C798 1.540       .   A
C798       H802 1.140       .   S
C793       C798 1.540       .   A
C794       C795 1.540       .   A
C795       C796 1.540       .   A
C794        C67 1.540       .   S
C793       C794 1.540       .   A
C796       C797 1.540       .   A
C1067     C1068 1.540       .   A
C1063     C1068 1.540       .   A
C1066     C1067 1.540       .   A
C1065     C1066 1.540       .   A
C1064     C1065 1.540       .   A
C1063     C1064 1.540       .   A
O141      Cu149 1.951       .   S
O142      Cu149 1.951       .   S
O143      Cu149 1.951       .   S
C1267     C1268 1.540       .   A
C1263     C1268 1.540       .   A
C1264     C1265 1.540       .   A
C1265     C1266 1.540       .   A
C1263     C1264 1.540       .   A
C670      C1267 1.540       .   S
C1266     C1267 1.540       .   A
C1263     H1269 1.140       .   S
O59         C69 1.250       .   A
O58         C68 1.250       .   A
O57         C67 1.250       .   A
C1403     C1408 1.540       .   A
C1408     H1412 1.140       .   S
C1407     C1408 1.540       .   A
C1403     H1409 1.140       .   S
C1403     C1404 1.540       .   A
C1405     H1410 1.140       .   S
C1404     C1405 1.540       .   A
C1405     C1406 1.540       .   A
C462      C1404 1.540       .   S
C475      C1407 1.540   1_556   S
C1406     C1407 1.540       .   A
C1406     H1411 1.140       .   S
O267       C277 1.250       .   A
O267      Cu275 1.951       .   S
C1314     C1315 1.540       .   A
C1315     C1316 1.540       .   A
C1315     H1320 1.140       .   S
C1314      C403 1.540       .   S
C1313     C1314 1.540       .   A
C1316     C1317 1.540       .   A
C1317     C1318 1.540       .   A
O211      Cu219 1.951       .   S
O212      Cu219 1.951       .   S
O213      Cu219 1.951       .   S
O214      Cu219 1.951       .   S
C1313     C1318 1.540       .   A
C1084     C1085 1.540       .   A
C1085     C1086 1.540       .   A
C1083     C1084 1.540       .   A
C1086     C1087 1.540       .   A
C1087     C1088 1.540       .   A
C1083     C1088 1.540       .   A
C1083     H1089 1.140       .   S
C913       H919 1.140       .   S
O453      Cu458 1.951       .   S
Cu457     Cu458 2.630       .   S
O449      Cu457 1.951       .   S
O452      Cu457 1.951       .   S
O450      Cu457 1.951       .   S
O463      Cu471 1.951       .   S
O463       C473 1.250       .   A
O467      Cu472 1.951       .   S
O467       C476 1.250       .   A
O466      Cu471 1.951       .   S
O466       C476 1.250       .   A
O465      Cu471 1.951       .   S
O465       C475 1.250       .   A
O464       C474 1.250       .   A
O464      Cu471 1.951       .   S
O469       C474 1.250       .   A
O469      Cu472 1.951       .   S
O468       C475 1.251       .   A
O468      Cu472 1.951       .   S
C1308     H1312 1.140       .   S
C1305     H1310 1.140       .   S
C1306     H1311 1.140       .   S
C976       H981 1.140       .   S
C978       H982 1.140       .   S
C1258     H1262 1.140       .   S
C1255     H1260 1.140       .   S
C1256     H1261 1.140       .   S
O260       C263 1.250       .   A
O260      Cu262 1.951       .   S
O269       C279 1.250       .   A
O269      Cu275 1.951       .   S
O268       C278 1.250       .   A
O268      Cu275 1.951       .   S
C873       H879 1.140       .   S
C1078     H1082 1.140       .   S
C1075     H1080 1.140       .   S
C1076     H1081 1.140       .   S
C716       H721 1.140       .   S
C715       H720 1.140       .   S
C490      C1437 1.540   1_545   S
C308       C977 1.540       .   S
C856       C857 1.540       .   A
C855       C856 1.540       .   A
C856       H861 1.140       .   S
C857       C858 1.540       .   A
C854       C855 1.540       .   A
C97        C854 1.540       .   S
C853       C854 1.540       .   A
C855       H860 1.140       .   S
C1157     C1158 1.540       .   A
C1156     C1157 1.540       .   A
C279      C1157 1.540       .   S
C994       C995 1.540       .   A
C993       C994 1.540       .   A
O91         C96 1.250       .   A
C858       H862 1.140       .   S
C278      C1097 1.540       .   S
C1434      C474 1.540       .   S
C1424      C473 1.540       .   S
C1073     C1078 1.540       .   A
C1077     C1078 1.540       .   A
Cu135     Cu136 2.630       .   S
C1073     C1074 1.540       .   A
C1074     C1075 1.540       .   A
C1075     C1076 1.540       .   A
C1076     C1077 1.540       .   A
C873       C878 1.540       .   A
C878       H882 1.140       .   S
C877       C878 1.540       .   A
C1277     C1278 1.540       .   A
C1273     C1278 1.540       .   A
C1276     C1277 1.540       .   A
C1275     C1276 1.540       .   A
C1274     C1275 1.540       .   A
C1273     C1274 1.540       .   A
C873       C874 1.540       .   A
C874       C875 1.540       .   A
C109       C874 1.540       .   S
C876       H881 1.140       .   S
C875       C876 1.540       .   A
C876       C877 1.540       .   A
C292       C877 1.540       .   S
C904       C905 1.540       .   A
C903       C904 1.540       .   A
C1413     C1418 1.540       .   A
C1417     C1418 1.540       .   A
C1413     H1419 1.140       .   S
C1413     C1414 1.540       .   A
C1416     C1417 1.540       .   A
C1415     C1416 1.540       .   A
C1414      C460 1.540       .   S
C1414     C1415 1.540       .   A
C714       C715 1.540       .   A
C715       C716 1.540       .   A
C713       C714 1.540       .   A
O60         C70 1.250       .   A
O61         C70 1.250       .   A
C1306     C1307 1.540       .   A
C1305     C1306 1.540       .   A
C586      C1307 1.540       .   S
C1307     C1308 1.540       .   A
C1304     C1305 1.540       .   A
C1303     C1304 1.540       .   A
C1303     C1308 1.540       .   A
Cu261     Cu262 2.630       .   S
C1096     C1097 1.540       .   A
C1095     C1096 1.540       .   A
C1097     C1098 1.540       .   A
C1094     C1095 1.540       .   A
C1093     C1094 1.540       .   A
C1093     C1098 1.540       .   A
Cu667     Cu668 2.630       .   S
C1323     H1329 1.140       .   S
O452       C462 1.250       .   A
O453       C462 1.250       .   A
O450       C460 1.250       .   A
C1248     H1252 1.140       .   S
C1246     H1251 1.140       .   S
C1245     H1250 1.140       .   S
C875       H880 1.140       .   S
C1534     C1535 1.540       .   A
C1535     C1536 1.540       .   A
C1427      C643 1.540       .   S
C823       C828 1.540       .   A
C853       H859 1.140       .   S
Cu121     Cu122 2.630       .   S
C1243     C1248 1.540       .   A
C1247     C1248 1.540       .   A
C1243     H1249 1.140       .   S
C1243     C1244 1.540       .   A
C1246     C1247 1.540       .   A
C1245     C1246 1.540       .   A
C1244     C1245 1.540       .   A
O78         C81 1.250       .   A
O75         C84 1.250       .   A
O74         C84 1.250       .   A
O77         C82 1.250       .   A
O76         C83 1.251       .   A
O71         C81 1.250       .   A
O73         C83 1.250       .   A
O72         C82 1.250       .   A
C1426     C1427 1.540       .   A
C1427     C1428 1.540       .   A
C1425     C1426 1.540       .   A
C1426     H1431 1.140       .   S
C1424     C1425 1.540       .   A
C1425     H1430 1.140       .   S
C1423     C1424 1.540       .   A
C1423     C1428 1.540       .   A
C1428     H1432 1.140       .   S
C916       C917 1.540       .   A
C917       C918 1.540       .   A
C915       C916 1.540       .   A
C914       C915 1.540       .   A
C913       C914 1.540       .   A
C913       C918 1.540       .   A
O63         C68 1.250       .   A
O62         C69 1.251       .   A
O64         C67 1.250       .   A
C1333     C1338 1.540       .   A
C1333     H1339 1.140       .   S
C1333     C1334 1.540       .   A
C1337     C1338 1.540       .   A
C1336     C1337 1.540       .   A
C1335     C1336 1.540       .   A
C1334     C1335 1.540       .   A
Cu275     Cu276 2.630       .   S
Cu471     Cu472 2.630       .   S
O449       C459 1.250       .   A
C1325     H1330 1.140       .   S
C1326     H1331 1.140       .   S
C1328     H1332 1.140       .   S
C673       C678 1.540       .   A
C677       C678 1.540       .   A
C673       H679 1.140       .   S
C673       C674 1.540       .   A
C676       C677 1.540       .   A
C675       C676 1.540       .   A
C674       C675 1.540       .   A
C1254     C1255 1.540       .   A
C1253     C1254 1.540       .   A
C1255     C1256 1.540       .   A
C1256     C1257 1.540       .   A
C1257     C1258 1.540       .   A
C853       C858 1.540       .   A
C1253     C1258 1.540       .   A
C973       C978 1.540       .   A
C973       C974 1.540       .   A
C977       C978 1.540       .   A
C976       C977 1.540       .   A
C1433     C1438 1.540       .   A
C1433     C1434 1.540       .   A
C1433     H1439 1.140       .   S
C1434     C1435 1.540       .   A
C1435     C1436 1.540       .   A
C1436     C1437 1.540       .   A
C1437     C1438 1.540       .   A
C923       C928 1.540       .   A
C923       C924 1.540       .   A
C926       C927 1.540       .   A
C925       C926 1.540       .   A
C927       C928 1.540       .   A
C924       C925 1.540       .   A
Cu247     Cu248 2.630       .   S
C1327     C1328 1.540       .   A
C1323     C1328 1.540       .   A
C1324     C1325 1.540       .   A
C1323     C1324 1.540       .   A
C1325     C1326 1.540       .   A
C1326     C1327 1.540       .   A
Cu485     Cu486 2.630       .   S
