data_usf_v1-4c_Cu_1_Ch_1B_4H_Ch
_audit_creation_date              2020-02-03
_audit_creation_method            'tobacco_3.0'
_symmetry_space_group_name_H-M    'P1'
_symmetry_Int_Tables_number       1
_symmetry_cell_setting            triclinic
loop_
_symmetry_equiv_pos_as_xyz
  x,y,z
_cell_length_a                    36.53560913245618
_cell_length_b                    36.53568612890105
_cell_length_c                    22.373345000946152
_cell_angle_alpha                 90.00001983241762
_cell_angle_beta                  90.00000933290241
_cell_angle_gamma                 120.00350956017627
loop_
_atom_site_label
_atom_site_type_symbol
_atom_site_fract_x
_atom_site_fract_y
_atom_site_fract_z
O1         O    0.8937814435    0.7273192389    0.6813392313
O2         O    0.7728960115    0.6669851125    0.6520623553
O3         O    0.8229817481    0.6919811966    0.7521774075
O4         O    0.8436920545    0.7023213383    0.5812168832
O5         O    0.8436145994    0.6414169869    0.5812152966
O6         O    0.8229094516    0.6310795194    0.7521706568
O7         O    0.7728185565    0.6060807611    0.6520607687
O8         O    0.8937039885    0.6664148875    0.6813376447
Cu9       Cu    0.8333424122    0.7027083719    0.6667008900
Cu10      Cu    0.8332575878    0.6306916281    0.6666991100
C11        C    0.9115667772    0.7057622806    0.6856562848
C12        C    0.7550332228    0.6276377194    0.6477437152
C13        C    0.8198962796    0.6600103175    0.7773785808
C14        C    0.8467037204    0.6733896825    0.5560214192
O15        O    0.1557679008    0.7981142338    0.9182020116
O16        O    0.1765150074    0.8085175436    0.7472605476
O17        O    0.2265825307    0.8336214044    0.8473937891
O18        O    0.1056967297    0.7730085377    0.8180614696
O19        O    0.1055881900    0.8338198464    0.8180616555
O20        O    0.2264688297    0.8944300258    0.8473991331
O21        O    0.1764064677    0.8693288523    0.7472607335
O22        O    0.1556593611    0.8589255425    0.9182021975
Cu23      Cu    0.1661524540    0.7977670435    0.8327267349
Cu24      Cu    0.1660219145    0.8696760426    0.8327360101
C25        C    0.1526552812    0.8269871289    0.9434070874
C26        C    0.1795190874    0.8404559572    0.7220556576
C27        C    0.2443464390    0.8729587405    0.8517262010
C28        C    0.0878279295    0.7944843457    0.8137365441
O29        O    0.5096623066   -0.0246273513    0.9145009245
O30        O    0.4888477421   -0.0350525875    1.0854259917
O31        O    0.4388196967   -0.0601114608    0.9852532607
O32        O    0.5596939970    0.0004333415    1.0146809589
O33        O    0.5596245819    0.0612642574    1.0146808426
O34        O    0.4387554451    0.0007219421    0.9852479904
O35        O    0.4887783269    0.0257783284    1.0854258754
O36        O    0.5095928915    0.0362035646    0.9145008082
Cu37      Cu    0.4992602621   -0.0353917023    0.9999679955
Cu38      Cu    0.4991803715    0.0365426794    0.9999588044
C39        C    0.5126958931    0.0073257024    0.8892983005
C40        C    0.4857447405   -0.0061747253    1.1106284993
C41        C    0.4209685167   -0.0386225664    0.9809068250
C42        C    0.5774721168    0.0397735435    1.0190199748
O43        O    0.1747787332    0.3091884721    0.2475723674
O44        O    0.1540756219    0.2988383985    0.4185245049
O45        O    0.1039822557    0.2737935835    0.3184170547
O46        O    0.2248757492    0.3342351055    0.3476871162
O47        O    0.2248821243    0.3951039499    0.3476869984
O48        O    0.1039937909    0.3346649083    0.3184117762
O49        O    0.1540819970    0.3597072429    0.4185243871
O50        O    0.1747851083    0.3700573164    0.2475722496
Cu51      Cu    0.1644255019    0.2984582437    0.3330529751
Cu52      Cu    0.1644352283    0.3704374713    0.3330437794
C53        C    0.1778337822    0.3411494086    0.2223657523
C54        C    0.1510269480    0.3277463064    0.4437310022
C55        C    0.0861661331    0.2953166609    0.3140938535
C56        C    0.2426945971    0.3735790541    0.3520029010
O57        O    0.8219731649    0.1318256765    0.2526448767
O58        O    0.8427198716    0.1422397949    0.0817033215
O59        O    0.8927875577    0.1673703055    0.1818363430
O60        O    0.7719018308    0.1066933285    0.1525045548
O61        O    0.7717502240    0.1674830323    0.1525047408
O62        O    0.8926307897    0.2281573194    0.1818416870
O63        O    0.8425682647    0.2030294987    0.0817035074
O64        O    0.8218215581    0.1926153803    0.2526450627
Cu65      Cu    0.8323614483    0.1314858626    0.1671695545
Cu66      Cu    0.8321799814    0.2033693126    0.1671788297
C67        C    0.8188390700    0.1606861755    0.2778499660
C68        C    0.8457023596    0.1741689997    0.0564984182
C69        C    0.9105299234    0.2067062897    0.1861686766
C70        C    0.7540115063    0.1281488855    0.1481797076
O71        O    0.5591558722    0.5610983406    0.5144600051
O72        O    0.4382753107    0.5010512819    0.4851495994
O73        O    0.4883468206    0.5259223625    0.5852785420
O74        O    0.5090807109    0.5362254527    0.4143237655
O75        O    0.5088121502    0.4752259460    0.4143221789
O76        O    0.4880834194    0.4649255182    0.5852717928
O77        O    0.4380067500    0.4400517752    0.4851480128
O78        O    0.5588873115    0.5000988339    0.5144584185
Cu79      Cu    0.4987367157    0.5366396990    0.4998048980
Cu80      Cu    0.4984259065    0.4645104169    0.4998031199
C81        C    0.5768449323    0.5394514764    0.5187820024
C82        C    0.4203176898    0.4616986394    0.4808260155
C83        C    0.4851623304    0.4939093568    0.6104788698
C84        C    0.5120002918    0.5072407590    0.3891291481
O85        O    0.1641184231    0.2741052730    0.8185984679
O86        O    0.1037183641    0.3345819707    0.8478934562
O87        O    0.1287420506    0.3095301210    0.7477709001
O88        O    0.1390929054    0.2991589433    0.9187283204
O89        O    0.1999746340    0.3600151064    0.9187299231
O90        O    0.1896262573    0.3703836038    0.7477776661
O91        O    0.1646000927    0.3954381339    0.8478950588
O92        O    0.2250001516    0.3349614361    0.8186000705
Cu93      Cu    0.1283608825    0.2987918271    0.8332458643
Cu94      Cu    0.2003576333    0.3707515797    0.8332476624
C95        C    0.2034658312    0.2956171150    0.8142787518
C96        C    0.1252526846    0.3739262919    0.8522147749
C97        C    0.1576577139    0.3414814756    0.7225701914
C98        C    0.1710608019    0.3280619313    0.9439233353
O99        O    0.3329972054    0.1054437895    0.6518864238
O100       O    0.2725075800    0.1658329208    0.6811648558
O101       O    0.2975713855    0.1408143379    0.5810491589
O102       O    0.3079315659    0.1304641905    0.7520094166
O103       O    0.3687835632    0.1913500785    0.7520110194
O104       O    0.3584258646    0.2016975495    0.5810559257
O105       O    0.3333595774    0.2267188088    0.6811664585
O106       O    0.3938492028    0.1663296775    0.6518880265
Cu107     Cu    0.2971975923    0.1300838454    0.6665255416
Cu108     Cu    0.3691591905    0.2020787529    0.6665273407
C109       C    0.3723429538    0.1269834056    0.6475691489
C110       C    0.2940138291    0.2051791927    0.6854837334
C111       C    0.3264708142    0.1727774582    0.5558480328
C112       C    0.3398859686    0.1593851401    0.7772048495
O113       O    1.0243566402    0.5361950442    0.9144659140
O114       O    1.0347426135    0.5257833125    1.0853948208
O115       O    1.0597306167    0.5007367422    0.9852313226
O116       O    0.9993668227    0.5612434458    1.0146367149
O117       O    0.9384744911    0.5003979045    1.0146365134
O118       O    0.9988358063    0.4398938846    0.9852259663
O119       O    0.9738502819    0.4649377711    1.0853946193
O120       O    0.9634643086    0.4753495029    0.9144657126
Cu121     Cu    1.0351069624    0.5365411477    0.9999349128
Cu122     Cu    0.9630999597    0.4645916677    0.9999256206
C123       C    0.9923786660    0.5073062748    0.8892626815
C124       C    1.0058282561    0.4938265405    1.1105978519
C125       C    1.0381843373    0.4613979405    0.9808881323
C126       C    0.9600225848    0.5397348748    1.0189724011
O127       O    0.6040956062    0.8348427431    0.3479215178
O128       O    0.6645507480    0.7744211195    0.3186265466
O129       O    0.6395078254    0.7994537424    0.4187490956
O130       O    0.6291403487    0.8098082884    0.2477916723
O131       O    0.6900039231    0.8706826122    0.2477901709
O132       O    0.7003687203    0.8603305453    0.4187424307
O133       O    0.7254143224    0.8352954433    0.3186250451
O134       O    0.6649591806    0.8957170670    0.3479200164
Cu135     Cu    0.6287707055    0.7990750953    0.3332741207
Cu136     Cu    0.7007392231    0.8710630911    0.3332724423
C137       C    0.6256143323    0.8741896284    0.3522412820
C138       C    0.7038955963    0.7959485580    0.3143052810
C139       C    0.6714623408    0.8283651606    0.4439498553
C140       C    0.6580475878    0.8417730258    0.2225967077
O141       O    0.7728489849    0.6661672691    0.1811747261
O142       O    0.8332753520    0.6057155141    0.1518909494
O143       O    0.8082423135    0.6307626568    0.2520088606
O144       O    0.7978838425    0.6411182936    0.0810495187
O145       O    0.8587573033    0.7019827314    0.0810480172
O146       O    0.8691130962    0.6916295748    0.2520021953
O147       O    0.8941488128    0.6665799520    0.1518894479
O148       O    0.8337224457    0.7270317070    0.1811732245
Cu149     Cu    0.7975087938    0.6303854570    0.1665329265
Cu150     Cu    0.8694890039    0.7023617641    0.1665312474
C151       C    0.7943768969    0.7055136541    0.1854928396
C152       C    0.8726209008    0.6272335670    0.1475713344
C153       C    0.8402004458    0.6596689731    0.2772099026
C154       C    0.8267973519    0.6730782480    0.0558542714
O155       O    0.5347540900    0.0258257709    0.5854044697
O156       O    0.5243470487    0.0362126229    0.4144746349
O157       O    0.4993060528    0.0612084401    0.5146359001
O158       O    0.5597969168    0.0008281388    0.4852359020
O159       O    0.4989457698   -0.0600585981    0.4852360024
O160       O    0.4384575888    0.0003192237    0.5146411555
O161       O    0.4634959017   -0.0246741140    0.4144747352
O162       O    0.4739029430   -0.0350609660    0.5854045701
Cu163     Cu    0.5351030505    0.0365760220    0.4999350161
Cu164     Cu    0.4631469412   -0.0354243651    0.4999441888
C165       C    0.5058618262   -0.0061495353    0.6106077885
C166       C    0.4923881655    0.0073011922    0.3892714164
C167       C    0.4599667831    0.0396673911    0.5189782448
C168       C    0.5382832086   -0.0385157342    0.4809009602
O169       O    0.3075539579    0.1765648926    0.2521722781
O170       O    0.2972255541    0.1558518351    0.0812225415
O171       O    0.2722481825    0.1057645037    0.1813357991
O172       O    0.3325331430    0.2266558733    0.1520517214
O173       O    0.3934543281    0.2267668131    0.1520518897
O174       O    0.3331718415    0.1058806037    0.1813411276
O175       O    0.3581467392    0.1559627748    0.0812227098
O176       O    0.3684751430    0.1766758324    0.2521724464
Cu177     Cu    0.2968297893    0.1661971458    0.1666928663
Cu178     Cu    0.3688709078    0.1663305217    0.1667021216
C179       C    0.3395378713    0.1796736919    0.2773785646
C180       C    0.3261628258    0.1528539755    0.0560164233
C181       C    0.2938205051    0.0880009727    0.1856610916
C182       C    0.3718801920    0.2445266947    0.1477338963
O183       O    0.5591759890    0.5611497210    0.9851648190
O184       O    0.4991284324    0.4402697015    1.0144774625
O185       O    0.5239992874    0.4903401178    0.9143475929
O186       O    0.5343033266    0.5110756535    1.0853019856
O187       O    0.4733038628    0.5108074385    1.0853035212
O188       O    0.4630024861    0.4900770623    0.9143542911
O189       O    0.4381289686    0.4400014865    1.0144789981
O190       O    0.4981765252    0.5608815060    0.9851663546
Cu191     Cu    0.5347170944    0.5007308039    0.9998210496
Cu192     Cu    0.4625878631    0.5004204036    0.9998227674
C193       C    0.5375292197    0.5788388741    0.9808424662
C194       C    0.4597757379    0.4223123335    1.0188013508
C195       C    0.4919861633    0.4871555578    0.8891472961
C196       C    0.5053187943    0.5139956497    1.1104965210
O197       O    0.1305530611    0.8235395951    0.2472439515
O198       O    0.1409556621    0.8442889455    0.4181848870
O199       O    0.1660543785    0.8943550331    0.3180503700
O200       O    0.1054525096    0.7734698598    0.3473857691
O201       O    0.1662676283    0.7733686642    0.3473856336
O202       O    0.2268668104    0.8942486762    0.3180450767
O203       O    0.2017707808    0.8441877499    0.4181847515
O204       O    0.1913681798    0.8234383996    0.2472438161
Cu205     Cu    0.1302051687    0.8339246001    0.3327189592
Cu206     Cu    0.2021186732    0.8338027449    0.3327097438
C207       C    0.1594279656    0.8204303168    0.2220389788
C208       C    0.1728958763    0.8472970283    0.4433897242
C209       C    0.2053919984    0.9121225206    0.3137175294
C210       C    0.1269318435    0.7556048245    0.3517111736
O211       O    1.0598429513    0.5609607944    0.4852288090
O212       O    0.9992746118    0.4400938898    0.5146558747
O213       O    1.0243403184    0.4901172357    0.4144786292
O214       O    1.0347754232    0.5109338006    0.5854133549
O215       O    0.9739526152    0.5110196545    0.5854148902
O216       O    0.9635201963    0.4902082510    0.4144853224
O217       O    0.9384518038    0.4401797436    0.5146574101
O218       O    0.9990201433    0.5610466483    0.4852303444
Cu219     Cu    1.0351075297    0.5005161239    0.4999422540
Cu220     Cu    0.9631872254    0.5006244142    0.4999439651
C221       C    1.0383612992    0.5788250523    0.4808895850
C222       C    0.9599334558    0.4223154857    0.5189966340
C223       C    0.9923962213    0.4870977510    0.3892812256
C224       C    1.0058985338    0.5140427870    0.6106049934
O225       O    0.7965348846    0.1569917754    0.5817045815
O226       O    0.8069486835    0.1777345432    0.7526471069
O227       O    0.8320842810    0.2278043931    0.6525164271
O228       O    0.7713974494    0.1069182775    0.6818425615
O229       O    0.8321841123    0.1067603576    0.6818424260
O230       O    0.8928682536    0.2276413122    0.6525111332
O231       O    0.8677353464    0.1775766233    0.7526469713
O232       O    0.8573215475    0.1568338555    0.5817044459
Cu233     Cu    0.7961951885    0.1673786653    0.6671803843
Cu234     Cu    0.8680750425    0.1671897334    0.6671711685
C235       C    0.8253939103    0.1538551047    0.5564993743
C236       C    0.8388763207    0.1807132940    0.7778521785
C237       C    0.8714201975    0.2455436599    0.6481849520
C238       C    0.7928500335    0.0890247388    0.6861666007
O239       O    0.6293773009    0.8245439988    0.7476015773
O240       O    0.6397316525    0.8452422554    0.9185549056
O241       O    0.6647906139    0.8953383325    0.8184503371
O242       O    0.6043165074    0.7744442718    0.8477134442
O243       O    0.6651760737    0.7744318377    0.8477133081
O244       O    0.7256474998    0.8953207384    0.8184450400
O245       O    0.7005912188    0.8452298213    0.9185547695
O246       O    0.6902368673    0.8245315647    0.7476014412
Cu247     Cu    0.6290012258    0.8348953555    0.8330827822
Cu248     Cu    0.7009672940    0.8348784646    0.8330735646
C249       C    0.6582815434    0.8214866360    0.7223947775
C250       C    0.6716869764    0.8482871841    0.9437615693
C251       C    0.7041316254    0.9131515097    0.8141281518
C252       C    0.6258368944    0.7566223104    0.8520281950
C603       C    0.7207311456   -0.0059719000    0.8055788784
C604       C    0.7266580625   -0.0421926254    0.7816375120
C605       C    0.7544177463   -0.0351326012    0.7262060099
C606       C    0.7762505132    0.0081481485    0.6947158741
C607       C    0.7703235964    0.0443688739    0.7186572405
C608       C    0.7425639126    0.0373088497    0.7740887427
H609       H    0.7001817693   -0.0111981517    0.8466125878
H610       H    0.7588057077   -0.0619428300    0.7084829413
H611       H    0.7967998896    0.0133744002    0.6536821647
H612       H    0.7381759512    0.0641190785    0.7918118112
C593       C    0.8897657240    0.3550575107    0.5663556162
C594       C    0.9373283724    0.3771703634    0.5519895750
C595       C    0.9632394751    0.3560424255    0.5692247518
C596       C    0.9415879294    0.3128016349    0.6008259698
C597       C    0.8940252810    0.2906887823    0.6151920110
C598       C    0.8681141783    0.3118167202    0.5979568342
H599       H    0.8705847778    0.3706976725    0.5535971087
H600       H    0.9984459984    0.3724096118    0.5585916047
H601       H    0.9607688755    0.2971614731    0.6135844773
H602       H    0.8329076549    0.2954495339    0.6085899814
C583       C    0.0723323536    0.7015774786    0.4352772527
C584       C    0.1043117059    0.7104568263    0.3847022032
C585       C    0.1146259236    0.6760942861    0.3657253298
C586       C    0.0929607891    0.6328523982    0.3973235060
C587       C    0.0609814369    0.6239730506    0.4478985555
C588       C    0.0506672191    0.6583355908    0.4668754288
H589       H    0.0646971535    0.7270146837    0.4493250680
H590       H    0.1382972529    0.6826656601    0.3282892574
H591       H    0.1005959893    0.6074151931    0.3832756906
H592       H    0.0269958898    0.6517642167    0.5043115013
C573       C    0.6086566511    0.6498801061    0.9421993560
C574       C    0.5601661045    0.6244120723    0.9478220767
C575       C    0.5331925104    0.6422625584    0.9220580514
C576       C    0.5547094630    0.6855810784    0.8906713053
C577       C    0.6032000096    0.7110491122    0.8850485845
C578       C    0.6301736037    0.6931986261    0.9108126099
H579       H    0.6286241169    0.6366661099    0.9612714267
H580       H    0.4972991264    0.6234117752    0.9262191539
H581       H    0.5347419972    0.6987950746    0.8715992346
H582       H    0.6660669877    0.7120494093    0.9066515073
C563       C    0.2980198895    0.0247335201    0.2426317845
C564       C    0.2713639238    0.0433363177    0.2181812585
C565       C    0.2229502861    0.0186645442    0.2252387845
C566       C    0.2011926140   -0.0246100268    0.2567468365
C567       C    0.2278485796   -0.0432128244    0.2811973625
C568       C    0.2762622174   -0.0185410509    0.2741398365
H569       H    0.3338585563    0.0429970407    0.2374073822
H570       H    0.2032181029    0.0324334881    0.2071408155
H571       H    0.1653539471   -0.0428735474    0.2619712388
H572       H    0.2959944005   -0.0323099948    0.2922378056
C553       C    0.3716887433    0.2985634525    0.0631251886
C554       C    0.3944159671    0.2901096322    0.1146765346
C555       C    0.4385551887    0.3249656937    0.1348189696
C556       C    0.4599671866    0.3682755756    0.1034100585
C557       C    0.4372399628    0.3767293960    0.0518587125
C558       C    0.3931007412    0.3418733344    0.0317162775
H559       H    0.3390142546    0.2727609134    0.0482145549
H560       H    0.4553791959    0.3187093091    0.1729777302
H561       H    0.4926416753    0.3940781147    0.1183206922
H562       H    0.3762767340    0.3481297191   -0.0064424830
C543       C    0.7022452664    0.7355558361    0.2373255426
C544       C    0.7273943938    0.7724618102    0.2808515458
C545       C    0.7742853740    0.7876370801    0.2934250634
C546       C    0.7960272268    0.7659063760    0.2624725779
C547       C    0.7708780995    0.7290004019    0.2189465748
C548       C    0.7239871193    0.7138251319    0.2063730571
H549       H    0.6675337616    0.7243221947    0.2280178738
H550       H    0.7929021526    0.8149552313    0.3256432542
H551       H    0.8307387316    0.7771400174    0.2717802468
H552       H    0.7053703406    0.6865069808    0.1741548664
C533       C    0.6011546465    0.8959990807    0.4535020306
C534       C    0.6035356205    0.8962591158    0.3847685166
C535       C    0.5843297444    0.9180969822    0.3478376071
C536       C    0.5627428943    0.9396748135    0.3796402115
C537       C    0.5603619203    0.9394147784    0.4483737255
C538       C    0.5795677964    0.9175769120    0.4853046351
H539       H    0.6153719834    0.8798333874    0.4808404961
H540       H    0.5860915251    0.9182901504    0.2969601355
H541       H    0.5485255575    0.9558405068    0.3523017460
H542       H    0.5778060158    0.9173837438    0.5361821066
C523       C    0.6276351429    0.8125289313    0.0450796983
C524       C    0.6682262433    0.8466343415    0.0145106342
C525       C    0.7054583825    0.8791355151    0.0526100744
C526       C    0.7020994213    0.8775312786    0.1212785787
C527       C    0.6615083209    0.8434258685    0.1518476428
C528       C    0.6242761817    0.8109246948    0.1137482027
H529       H    0.6000736892    0.7884696209    0.0168762166
H530       H    0.7355049491    0.9043812471    0.0299841675
H531       H    0.7296608750    0.9015905890    0.1494820604
H532       H    0.5942296151    0.7856789628    0.1363741096
C513       C    0.7031440811    0.8261837575    0.5522536320
C514       C    0.6681230076    0.8266224978    0.5144934146
C515       C    0.6298508687    0.8253646386    0.5454120990
C516       C    0.6265998031    0.8236680391    0.6140910007
C517       C    0.6616208765    0.8232292988    0.6518512181
C518       C    0.6998930155    0.8244871580    0.6209325338
H519       H    0.7314754047    0.8271149000    0.5293657748
H520       H    0.6039271834    0.8256893529    0.5174630988
H521       H    0.5982684795    0.8227368967    0.6369788580
H522       H    0.7258167008    0.8241624437    0.6488815340
C503       C    0.9960424849    0.4526561082    1.2151440313
C504       C    1.0024221713    0.4921202594    1.1812661631
C505       C    1.0054919250    0.5299262970    1.2160616706
C506       C    1.0021819925    0.5282681834    1.2847350463
C507       C    0.9958023062    0.4888040322    1.3186129144
C508       C    0.9927325524    0.4509979946    1.2838174069
H509       H    0.9937700698    0.4246698206    1.1893863179
H510       H    1.0102142433    0.5591387178    1.1909864942
H511       H    1.0044544076    0.5562544709    1.3104927596
H512       H    0.9880102341    0.4217855737    1.3088925834
C493       C    0.9755127018    0.4677318848    0.7821450523
C494       C    0.9958068189    0.5090144124    0.8186050996
C495       C    1.0194327170    0.5519570586    0.7863938847
C496       C    1.0227644980    0.5536171771    0.7177226226
C497       C    1.0024703808    0.5123346495    0.6812625753
C498       C    0.9788444828    0.4693920033    0.7134737901
H499       H    0.9580234006    0.4359431727    0.8059897179
H500       H    1.0344550980    0.5825155978    0.8133804628
H501       H    1.0402537991    0.5854058892    0.6938779570
H502       H    0.9638221017    0.4388334641    0.6864872121
C483       C    0.9572929283    0.5875584763    1.1090083265
C484       C    0.9379015090    0.5618805031    1.0515203638
C485       C    0.8969303235    0.5578062477    1.0257839050
C486       C    0.8753505573    0.5794099656    1.0575354090
C487       C    0.8947419765    0.6050879388    1.1150233717
C488       C    0.9357131620    0.6091621942    1.1407598305
H489       H    0.9876222474    0.5905744835    1.1280599907
H490       H    0.8825755673    0.5387993742    0.9832307049
H491       H    0.8450212381    0.5763939583    1.0384837448
H492       H    0.9500679183    0.6281690677    1.1833130307
C473       C    0.2979698907    0.1562956760    0.8786051235
C474       C    0.3364041687    0.1577280701    0.8479441928
C475       C    0.3714586751    0.1575519519    0.8859497057
C476       C    0.3680789036    0.1559434396    0.9546161492
C477       C    0.3296446257    0.1545110455    0.9852770799
C478       C    0.2945901192    0.1546871637    0.9472715671
H479       H    0.2720204509    0.1564260493    0.8504711725
H480       H    0.3999087005    0.1586121993    0.8632557965
H481       H    0.3940283435    0.1558130664    0.9827501003
H482       H    0.2661400939    0.1536269163    0.9699654763
C463       C    0.3166441137    0.1350880259    0.3804724051
C464       C    0.3362271921    0.1779264570    0.3479317946
C465       C    0.3525874211    0.2190640062    0.3840726882
C466       C    0.3493645718    0.2173631242    0.4527541923
C467       C    0.3297814935    0.1745246930    0.4852948028
C468       C    0.3134212644    0.1333871439    0.4491539092
H469       H    0.3045332948    0.1046355544    0.3537187566
H470       H    0.3670832639    0.2507741626    0.3599873878
H471       H    0.3614753907    0.2478155957    0.4795078408
H472       H    0.2989254217    0.1016769875    0.4732392096
C453       C    0.4152931559    0.0445369277    0.6117839454
C454       C    0.4377859199    0.0617703349    0.5515294044
C455       C    0.4386476324    0.1005588056    0.5230191558
C456       C    0.4170165810    0.1221138690    0.5547634483
C457       C    0.3945238170    0.1048804618    0.6150179893
C458       C    0.3936621045    0.0660919911    0.6435282379
H459       H    0.4146552649    0.0158233844    0.6328889346
H460       H    0.4552967237    0.1133161399    0.4784180565
H461       H    0.4176544721    0.1508274123    0.5336584591
H462       H    0.3770130133    0.0533346568    0.6881293372
C443       C    0.0709718134    0.4036890133    0.8509033504
C444       C    0.1032482195    0.3960326819    0.8847339221
C445       C    0.1139949170    0.4100057848    0.9503820253
C446       C    0.0924652085    0.4316352191    0.9821995567
C447       C    0.0601888025    0.4392915505    0.9483689850
C448       C    0.0494421050    0.4253184477    0.8827208819
H449       H    0.0630164659    0.3933452878    0.8023067027
H450       H    0.1378861381    0.4043390377    0.9754253718
H451       H    0.1004205560    0.4419789446    1.0307962045
H452       H    0.0255508838    0.4309851948    0.8576775354
C433       C    0.2107145467    0.2502583739    0.7199455800
C434       C    0.2269880440    0.2721234972    0.7808208742
C435       C    0.2650133274    0.2722632771    0.8107565367
C436       C    0.2867651135    0.2505379338    0.7798169052
C437       C    0.2704916162    0.2286728105    0.7189416110
C438       C    0.2324663328    0.2285330306    0.6890059485
H439       H    0.1825659603    0.2501549005    0.6977854142
H440       H    0.2770601157    0.2884477680    0.8558171605
H441       H    0.3149136999    0.2506414072    0.8019770709
H442       H    0.2204195446    0.2123485396    0.6439453247
C423       C    0.5455980875    0.5091460568    0.2806098835
C424       C    0.5103062985    0.5089533601    0.3184860320
C425       C    0.4733677539    0.5104255076    0.2876889830
C426       C    0.4717209985    0.5120903519    0.2190157855
C427       C    0.5070127876    0.5122830487    0.1811396370
C428       C    0.5439513321    0.5108109011    0.2119366860
H429       H    0.5729422049    0.5080562853    0.3034076990
H430       H    0.4472437281    0.5102829208    0.3157237989
H431       H    0.4443768811    0.5131801235    0.1962179700
H432       H    0.5700753579    0.5109534880    0.1839018701
C413       C    0.5145739913    0.4767484235    0.7114369252
C414       C    0.4868927080    0.4921967383    0.6811432029
C415       C    0.4608929636    0.5059807721    0.7195193607
C416       C    0.4625745025    0.5043164911    0.7881892407
C417       C    0.4902557857    0.4888681763    0.8184829630
C418       C    0.5162555301    0.4750841425    0.7801068052
H419       H    0.5338205553    0.4665446582    0.6830286006
H420       H    0.4404025533    0.5174159961    0.6970972696
H421       H    0.4433279384    0.5145202564    0.8165975653
H422       H    0.5367459404    0.4636489185    0.8025288962
C403       C    0.8294715952    0.2042536950   -0.0445360733
C404       C    0.8439716758    0.1758282495   -0.0141499513
C405       C    0.8567894207    0.1490157014   -0.0524385797
C406       C    0.8551070851    0.1506285987   -0.1211133301
C407       C    0.8406070045    0.1790540442   -0.1514994521
C408       C    0.8277892596    0.2058665923   -0.1132108237
H409       H    0.8199831347    0.2241019448   -0.0161925432
H410       H    0.8675227345    0.1279744392   -0.0299480919
H411       H    0.8645955456    0.1307803488   -0.1494568602
H412       H    0.8170559458    0.2269078545   -0.1357013115
C393       C    0.8010529018    0.1159976038    0.3806967994
C394       C    0.8205010206    0.1589541879    0.3485002823
C395       C    0.8415646090    0.2002272242    0.3849781531
C396       C    0.8431800786    0.1985436764    0.4536525409
C397       C    0.8237319597    0.1555870923    0.4858490580
C398       C    0.8026683713    0.1143140560    0.4493711873
H399       H    0.7854603753    0.0854448367    0.3536937003
H400       H    0.8559607040    0.2320248413    0.3611475600
H401       H    0.8587726051    0.2290964435    0.4806556401
H402       H    0.7882722763    0.0825164390    0.4732017803
C383       C    0.2171347654    0.3612369737    0.1150684918
C384       C    0.1761179274    0.3378338503    0.1518256437
C385       C    0.1334304540    0.3112025465    0.1199016957
C386       C    0.1317598187    0.3079743662    0.0512205958
C387       C    0.1727766567    0.3313774896    0.0144634438
C388       C    0.2154641301    0.3580087933    0.0463873918
H389       H    0.2487345834    0.3809510557    0.1387005052
H390       H    0.1030685853    0.2938787949    0.1471081986
H391       H    0.1001600007    0.2882602842    0.0275885823
H392       H    0.2458259988    0.3753325449    0.0191808889
C373       C    0.1811558948    0.3191851142    0.5502499599
C374       C    0.1527094548    0.3312315021    0.5144843449
C375       C    0.1258958910    0.3466602788    0.5473849819
C376       C    0.1275287671    0.3500426678    0.6160512338
C377       C    0.1559752070    0.3379962800    0.6518168488
C378       C    0.1827887709    0.3225675032    0.6189162118
H379       H    0.2010048966    0.3077638120    0.5258949429
H380       H    0.1048390887    0.3555774606    0.5209124420
H381       H    0.1076797653    0.3614639701    0.6404062508
H382       H    0.2038455732    0.3136503215    0.6453887517
C363       C    0.2916488295    0.4093236684    0.4510704221
C364       C    0.2881963884    0.3961526897    0.3850035789
C365       C    0.3280537024    0.4044678681    0.3503476151
C366       C    0.3713634575    0.4259540251    0.3817584944
C367       C    0.3748158986    0.4391250038    0.4478253376
C368       C    0.3349585846    0.4308098254    0.4824813014
H369       H    0.2621440645    0.4031682766    0.4767248369
H370       H    0.3254994792    0.3947190197    0.3014440758
H371       H    0.4008682224    0.4321094169    0.3561040796
H372       H    0.3375128078    0.4405586738    0.5313848407
C353       C   -0.0070549212    0.2281906950    0.1901309069
C354       C   -0.0449231477    0.2291806982    0.2186145702
C355       C   -0.0395201983    0.2520014785    0.2786149283
C356       C    0.0037509776    0.2738322556    0.3101316232
C357       C    0.0416192041    0.2728422525    0.2816479599
C358       C    0.0362162547    0.2500214722    0.2216476017
H359       H   -0.0110545071    0.2112973901    0.1457150573
H360       H   -0.0675499540    0.2527349975    0.2997003335
H361       H    0.0077505635    0.2907255606    0.3545474727
H362       H    0.0642460104    0.2492879531    0.2005621965
C343       C    0.6681106166    0.0893012324    1.1520144701
C344       C    0.7089727103    0.1056025347    1.1152284276
C345       C    0.7066039052    0.1002625169    1.0468137988
C346       C    0.6633730065    0.0786211966    1.0151852124
C347       C    0.6225109128    0.0623198943    1.0519712548
C348       C    0.6248797178    0.0676599121    1.1203858837
H349       H    0.6698641476    0.0932542326    1.2026590655
H350       H    0.7368498068    0.1123285140    1.0195827358
H351       H    0.6616194754    0.0746681964    0.9645406170
H352       H    0.5946338163    0.0555939150    1.1476169467
C333       C    0.4678953915   -0.0431441174    1.2196819487
C334       C    0.4874291633   -0.0027579420    1.1812776749
C335       C    0.5086002248    0.0409494089    1.2115456841
C336       C    0.5102375144    0.0442705844    1.2802179671
C337       C    0.4907037426    0.0038844090    1.3186222409
C338       C    0.4695326812   -0.0398229419    1.2883542317
H339       H    0.4522233071   -0.0754989096    1.1972757601
H340       H    0.5230597233    0.0708444956    1.1831199350
H341       H    0.5259095989    0.0766253766    1.3026241557
H342       H    0.4550731827   -0.0697180286    1.3167799808
C323       C    0.4864167388   -0.0396875302    0.7883459969
C324       C    0.5109628476    0.0039085277    0.8186253982
C325       C    0.5338249684    0.0441841414    0.7802324458
C326       C    0.5321409805    0.0408636972    0.7115600922
C327       C    0.5075948717   -0.0027323607    0.6812806909
C328       C    0.4847327509   -0.0430079743    0.7196736432
H329       H    0.4694928311   -0.0695019455    0.8167667538
H330       H    0.5519946344    0.0764550631    0.8026439360
H331       H    0.5490648881    0.0706781125    0.6831393352
H332       H    0.4665630849   -0.0752788960    0.6972621530
C313       C    0.3303751216    0.9180154810    0.8476370595
C314       C    0.2894237819    0.8955248873    0.8846955747
C315       C    0.2917061382    0.8946774934    0.9533750283
C316       C    0.3349398341    0.9163206930    0.9849959666
C317       C    0.3758911738    0.9388112867    0.9479374513
C318       C    0.3736088175    0.9396586806    0.8792579978
H319       H    0.3286855851    0.9186427726    0.7967964251
H320       H    0.2613941743    0.8780300091    0.9808077831
H321       H    0.3366293706    0.9156934014    1.0358366010
H322       H    0.4039207814    0.9563061649    0.8518252430
C303       C    0.1358821799    0.8145474092    0.6182448163
C304       C    0.1778396615    0.8421906251    0.6513952536
C305       C    0.2181649634    0.8715197087    0.6158731282
C306       C    0.2165327837    0.8732055763    0.5472005655
C307       C    0.1745753021    0.8455623604    0.5140501283
C308       C    0.1342500002    0.8162332768    0.5495722537
H309       H    0.1060309824    0.7928362694    0.6445404157
H310       H    0.2492230184    0.8919820471    0.6404098398
H311       H    0.2463839812    0.8949167161    0.5209049662
H312       H    0.1031919453    0.7957709384    0.5250355421
C293       C    0.1692585703    0.8659224232    1.0509746824
C294       C    0.1543723282    0.8253248110    1.0140473292
C295       C    0.1411553813    0.7831111106    1.0457956799
C296       C    0.1428246765    0.7814950225    1.1144713838
C297       C    0.1577109186    0.8220926347    1.1513987370
C298       C    0.1709278655    0.8643063351    1.1196503863
H299       H    0.1790425440    0.8971715261    1.0274726566
H300       H    0.1301362195    0.7530595663    1.0184631891
H301       H    0.1330407028    0.7502459196    1.1379734097
H302       H    0.1819470273    0.8943578793    1.1469828772
C283       C    0.7066661076    0.6085959278    0.5463559933
C284       C    0.7092675102    0.6049880478    0.6146213104
C285       C    0.6685404801    0.5799367179    0.6515281760
C286       C    0.6252120475    0.5584932679    0.6201697243
C287       C    0.6226106449    0.5621011479    0.5519044072
C288       C    0.6633376750    0.5871524779    0.5149975416
H289       H    0.7368146883    0.6271404188    0.5190353266
H290       H    0.6704647402    0.5772653852    0.7020590891
H291       H    0.5950634667    0.5399487769    0.6474903910
H292       H    0.6614134149    0.5898238106    0.4644666285
C273       C    0.9821383690    0.7055484195    0.7231530143
C274       C    0.9564047763    0.7283317454    0.7182378405
C275       C    0.9739637607    0.7729066391    0.7447812407
C276       C    1.0172563378    0.7946982069    0.7762398146
C277       C    1.0429899305    0.7719148809    0.7811549884
C278       C    1.0254309461    0.7273399872    0.7546115882
H279       H    0.9691401598    0.6725514202    0.7035040037
H280       H    0.9549164025    0.7897721867    0.7411438866
H281       H    1.0302545470    0.8276952061    0.7958888252
H282       H    1.0444783043    0.7104744396    0.7582489423
C263       C    0.8363287988    0.6284853601    0.4548993961
C264       C    0.8450537278    0.6699085026    0.4852821449
C265       C    0.8521770121    0.7079524703    0.4469984097
C266       C    0.8505753674    0.7045732954    0.3783319257
C267       C    0.8418504383    0.6631501529    0.3479491768
C268       C    0.8347271540    0.6251061853    0.3862329120
H269       H    0.8310557182    0.6003229425    0.4832393039
H270       H    0.8586353990    0.7386149372    0.4694864009
H271       H    0.8558484480    0.7327357130    0.3499920178
H272       H    0.8282687671    0.5944437184    0.3637449209
C253       C    0.7848136596    0.6298603244    0.8856386026
C254       C    0.8216447788    0.6633212907    0.8479349357
C255       C    0.8601779349    0.7000052491    0.8789127593
C256       C    0.8618799719    0.7032282412    0.9475942496
C257       C    0.8250488528    0.6697672748    0.9852979165
C258       C    0.7865156966    0.6330833164    0.9543200929
H259       H    0.7562891154    0.6027046669    0.8627069670
H260       H    0.8874414179    0.7247740984    0.8510056194
H261       H    0.8904045161    0.7303838987    0.9705258852
H262       H    0.7592522136    0.6083144671    0.9822272328
loop_
_geom_bond_atom_site_label_1
_geom_bond_atom_site_label_2
_geom_bond_distance
_geom_bond_site_symmetry_2
_ccdc_geom_bond_type
C383       H389 1.140       .   S
C465       H470 1.140       .   S
C508       H512 1.140       .   S
C505       H510 1.140       .   S
C506       H511 1.140       .   S
C573       C574 1.540       .   A
C573       C578 1.540       .   A
C573       H579 1.140       .   S
C513       H519 1.140       .   S
O29         C39 1.250       .   A
O29        Cu37 1.951       .   S
O22        Cu24 1.951       .   S
O22         C25 1.250       .   A
O20        Cu24 1.951       .   S
O20         C27 1.251       .   A
O21        Cu24 1.951       .   S
O21         C26 1.250       .   A
C563       C568 1.540       .   A
C563       H569 1.140       .   S
C563       C564 1.540       .   A
O246       C249 1.250       .   A
C517       C249 1.582       .   S
O239       C249 1.250       .   A
C566       H571 1.140       .   S
C566       C567 1.540       .   A
C565       C566 1.540       .   A
O48        Cu52 1.951       .   S
O49        Cu52 1.951       .   S
O50        Cu52 1.951       .   S
Cu51       Cu52 2.630       .   S
O47        Cu52 1.951       .   S
O43        Cu51 1.951       .   S
O44        Cu51 1.951       .   S
O45        Cu51 1.951       .   S
O46        Cu51 1.951       .   S
O239      Cu247 1.951       .   S
C567       C568 1.540       .   A
C568       H572 1.140       .   S
C375       H380 1.140       .   S
O232      Cu234 1.951       .   S
O232       C235 1.250       .   A
O230      Cu234 1.951       .   S
O230       C237 1.251       .   A
O231      Cu234 1.951       .   S
O231       C236 1.250       .   A
C403       H409 1.140       .   S
O144      Cu149 1.951       .   S
Cu149     Cu150 2.630       .   S
O141      Cu149 1.951       .   S
O142      Cu149 1.951       .   S
O143      Cu149 1.951       .   S
C458       H462 1.140       .   S
C455       H460 1.140       .   S
C456       H461 1.140       .   S
C273       H279 1.140       .   S
C488       H492 1.140       .   S
C483       C488 1.540       .   A
C487       C488 1.540       .   A
C338       H342 1.140       .   S
C336       H341 1.140       .   S
C463       H469 1.140       .   S
O59         C69 1.250       .   A
O59        Cu65 1.951       .   S
O58         C68 1.250       .   A
O58        Cu65 1.951       .   S
O50         C53 1.250       .   A
O57         C67 1.250       .   A
O57        Cu65 1.951       .   S
C476       H481 1.140       .   S
C478       H482 1.140       .   S
O162      Cu164 1.951       .   S
O162       C165 1.250       .   A
O160       C167 1.251       .   A
O160      Cu164 1.951       .   S
O161       C166 1.250       .   A
O161      Cu164 1.951       .   S
O169       C179 1.250       .   A
O169      Cu177 1.951       .   S
C485       H490 1.140       .   S
C484       C485 1.540       .   A
C485       C486 1.540       .   A
O30         C40 1.250       .   A
O35         C40 1.250       .   A
C40        C334 1.584       .   S
O31         C41 1.250       .   A
O34         C41 1.251       .   A
C41        C317 1.606   1_545   S
O33         C42 1.250       .   A
O32         C42 1.250       .   A
C42        C347 1.604       .   S
C313       C318 1.540       .   A
C317       C318 1.540       .   A
C318       H322 1.140       .   S
O75        Cu80 1.951       .   S
O77        Cu80 1.951       .   S
O76        Cu80 1.951       .   S
Cu79       Cu80 2.630       .   S
O78        Cu80 1.951       .   S
C597       C598 1.540       .   A
C596       C597 1.540       .   A
C237       C597 1.608       .   S
O211      Cu219 1.951       .   S
O212      Cu219 1.951       .   S
O213      Cu219 1.951       .   S
O214      Cu219 1.951       .   S
Cu219     Cu220 2.630       .   S
C595       H600 1.140       .   S
C595       C596 1.540       .   A
C594       C595 1.540       .   A
C593       C594 1.540       .   A
C594       C222 1.608       .   S
C593       C598 1.540       .   A
C598       H602 1.140       .   S
C286       H291 1.140       .   S
C285       H290 1.140       .   S
C288       H292 1.140       .   S
C293       H299 1.140       .   S
C343       C348 1.540       .   A
C348       H352 1.140       .   S
C347       C348 1.540       .   A
C343       H349 1.140       .   S
C343       C344 1.540       .   A
C346       H351 1.140       .   S
C346       C347 1.540       .   A
C345       C346 1.540       .   A
C70        C344 1.604   1_554   S
C344       C345 1.540       .   A
C345       H350 1.140       .   S
C486       H491 1.140       .   S
C493       H499 1.140       .   S
C526       C527 1.540       .   A
C525       C526 1.540       .   A
C526       H531 1.140       .   S
C527       C140 1.587       .   S
C527       C528 1.540       .   A
C250       C524 1.587   1_556   S
C524       C525 1.540       .   A
C523       C524 1.540       .   A
C525       H530 1.140       .   S
C523       H529 1.140       .   S
C523       C528 1.540       .   A
C287       C288 1.540       .   A
C283       C288 1.540       .   A
C286       C287 1.540       .   A
C81        C287 1.627       .   S
C285       C286 1.540       .   A
C284       C285 1.540       .   A
C284        C12 1.627       .   S
C283       C284 1.540       .   A
C283       H289 1.140       .   S
C528       H532 1.140       .   S
C447       C448 1.540       .   A
C448       H452 1.140       .   S
C443       C448 1.540       .   A
C444       C445 1.540       .   A
C445       C446 1.540       .   A
C445       H450 1.140       .   S
C444        C96 1.574       .   S
C443       C444 1.540       .   A
C446       C447 1.540       .   A
C447       C125 1.574   1_455   S
O7         Cu10 1.951       .   S
O6         Cu10 1.951       .   S
O5         Cu10 1.951       .   S
Cu9        Cu10 2.630       .   S
O8         Cu10 1.951       .   S
C474       C112 1.587       .   S
O102       C112 1.250       .   A
O103       C112 1.250       .   A
C467       C111 1.582       .   S
O101       C111 1.250       .   A
O104       C111 1.251       .   A
O100       C110 1.250       .   A
O105       C110 1.250       .   A
C110       C437 1.665       .   S
O103      Cu108 1.951       .   S
O104      Cu108 1.951       .   S
O105      Cu108 1.951       .   S
O106      Cu108 1.951       .   S
Cu107     Cu108 2.630       .   S
O88        Cu93 1.951       .   S
O88         C98 1.250       .   A
O89         C98 1.250       .   A
O89        Cu94 1.951       .   S
O85        Cu93 1.951       .   S
O85         C95 1.250       .   A
O86        Cu93 1.951       .   S
O86         C96 1.250       .   A
C565       H570 1.140       .   S
C564       C565 1.540       .   A
O100      Cu107 1.951       .   S
O101      Cu107 1.951       .   S
O102      Cu107 1.951       .   S
O99       Cu107 1.951       .   S
C443       H449 1.140       .   S
C418       H422 1.140       .   S
C415       H420 1.140       .   S
C416       H421 1.140       .   S
C378       H382 1.140       .   S
C376       H381 1.140       .   S
C423       H429 1.140       .   S
O17        Cu23 1.951       .   S
O17         C27 1.250       .   A
O16         C26 1.250       .   A
O16        Cu23 1.951       .   S
O15        Cu23 1.951       .   S
O15         C25 1.250       .   A
C543       H549 1.140       .   S
C536       H541 1.140       .   S
C535       H540 1.140       .   S
O19        Cu24 1.951       .   S
O19         C28 1.250       .   A
O18         C28 1.250       .   A
O18        Cu23 1.951       .   S
C236       C407 1.584   1_556   S
O226       C236 1.250       .   A
O227       C237 1.250       .   A
O225       C235 1.250       .   A
C235       C397 1.584       .   S
O229       C238 1.250       .   A
O228       C238 1.250       .   A
C238       C607 1.589       .   S
C567       C209 1.589   1_545   S
C294       C295 1.540       .   A
C295       C296 1.540       .   A
C295       H300 1.140       .   S
O127       C137 1.250       .   A
O127      Cu135 1.951       .   S
O120      Cu122 1.951       .   S
O120       C123 1.250       .   A
O128      Cu135 1.951       .   S
O128       C138 1.250       .   A
O129       C139 1.250       .   A
O129      Cu135 1.951       .   S
O175      Cu178 1.951       .   S
O174      Cu178 1.951       .   S
Cu177     Cu178 2.630       .   S
O176      Cu178 1.951       .   S
O173      Cu178 1.951       .   S
O171      Cu177 1.951       .   S
O170      Cu177 1.951       .   S
O172      Cu177 1.951       .   S
C564       C181 1.589       .   S
C328       H332 1.140       .   S
C325       H330 1.140       .   S
C326       H331 1.140       .   S
C333       H339 1.140       .   S
O190       C193 1.250       .   A
O190      Cu192 1.951       .   S
O197       C207 1.250       .   A
O197      Cu205 1.951       .   S
O199       C209 1.250       .   A
O199      Cu205 1.951       .   S
O198      Cu205 1.951       .   S
O198       C208 1.250       .   A
C457       C458 1.540       .   A
C456       C457 1.540       .   A
C457       C109 1.579       .   S
C497       C498 1.540       .   A
C498       H502 1.140       .   S
C493       C498 1.540       .   A
C496       H501 1.140       .   S
C496       C497 1.540       .   A
C495       C496 1.540       .   A
C224       C497 1.585       .   S
C494       C123 1.585       .   S
C494       C495 1.540       .   A
C493       C494 1.540       .   A
C495       H500 1.140       .   S
C253       H259 1.140       .   S
C307       C308 1.540       .   A
C303       C308 1.540       .   A
C308       H312 1.140       .   S
C306       C307 1.540       .   A
C305       C306 1.540       .   A
C306       H311 1.140       .   S
C208       C307 1.585       .   S
C304       C305 1.540       .   A
C26        C304 1.585       .   S
C303       C304 1.540       .   A
C305       H310 1.140       .   S
C303       H309 1.140       .   S
C606       H611 1.140       .   S
C605       H610 1.140       .   S
C608       H612 1.140       .   S
C588       H592 1.140       .   S
C585       H590 1.140       .   S
C586       H591 1.140       .   S
O36         C39 1.250       .   A
C39        C324 1.585       .   S
O218      Cu220 1.951       .   S
O215      Cu220 1.951       .   S
O216      Cu220 1.951       .   S
O217      Cu220 1.951       .   S
O146       C153 1.251       .   A
C153       C267 1.587       .   S
O143       C153 1.250       .   A
O147       C152 1.250       .   A
C152       C487 1.579   1_554   S
O142       C152 1.250       .   A
C151       C547 1.664       .   S
O148       C151 1.250       .   A
O141       C151 1.250       .   A
C405       H410 1.140       .   S
C404       C405 1.540       .   A
C405       C406 1.540       .   A
C403       C404 1.540       .   A
C404        C68 1.584       .   S
C407       C408 1.540       .   A
C406       C407 1.540       .   A
O144       C154 1.250       .   A
O145       C154 1.250       .   A
C154       C257 1.582   1_554   S
C408       H412 1.140       .   S
C403       C408 1.540       .   A
C393       C398 1.540       .   A
C393       C394 1.540       .   A
C393       H399 1.140       .   S
C395       H400 1.140       .   S
C394       C395 1.540       .   A
C395       C396 1.540       .   A
C67        C394 1.584       .   S
C397       C398 1.540       .   A
C396       C397 1.540       .   A
C396       H401 1.140       .   S
C398       H402 1.140       .   S
C503       H509 1.140       .   S
C276       C277 1.540       .   A
C275       C276 1.540       .   A
C276       H281 1.140       .   S
C28        C277 1.595   1_455   S
C277       C278 1.540       .   A
C274        C11 1.595       .   S
C274       C275 1.540       .   A
C273       C274 1.540       .   A
C275       H280 1.140       .   S
C273       C278 1.540       .   A
C278       H282 1.140       .   S
O200       C210 1.250       .   A
O200      Cu205 1.951       .   S
O229      Cu234 1.951       .   S
O228      Cu233 1.951       .   S
C475       C476 1.540       .   A
C476       C477 1.540       .   A
C477       C180 1.587   1_556   S
C477       C478 1.540       .   A
O62        Cu66 1.951       .   S
O63        Cu66 1.951       .   S
O61        Cu66 1.951       .   S
O64        Cu66 1.951       .   S
Cu65       Cu66 2.630       .   S
C577       C578 1.540       .   A
C578       H582 1.140       .   S
O60        Cu65 1.951       .   S
C574       C575 1.540       .   A
C575       C576 1.540       .   A
C575       H580 1.140       .   S
C574       C193 1.620       .   S
C577       C252 1.620       .   S
C576       C577 1.540       .   A
C576       H581 1.140       .   S
O225      Cu233 1.951       .   S
O227      Cu233 1.951       .   S
O226      Cu233 1.951       .   S
C335       H340 1.140       .   S
O130      Cu135 1.951       .   S
Cu135     Cu136 2.630       .   S
O131      Cu136 1.951       .   S
O133      Cu136 1.951       .   S
O132      Cu136 1.951       .   S
O134      Cu136 1.951       .   S
C368       H372 1.140       .   S
C365       H370 1.140       .   S
C366       H371 1.140       .   S
C373       H379 1.140       .   S
C466       H471 1.140       .   S
C468       H472 1.140       .   S
O48         C55 1.251       .   A
O49         C54 1.250       .   A
O43         C53 1.250       .   A
O44         C54 1.250       .   A
O45         C55 1.250       .   A
O46         C56 1.250       .   A
O47         C56 1.250       .   A
C548       H552 1.140       .   S
O60         C70 1.250       .   A
O61         C70 1.250       .   A
C253       C258 1.540       .   A
C258       H262 1.140       .   S
C257       C258 1.540       .   A
O175       C180 1.250       .   A
O174       C181 1.251       .   A
O176       C179 1.250       .   A
O171       C181 1.250       .   A
O170       C180 1.250       .   A
O173       C182 1.250       .   A
O172       C182 1.250       .   A
C366       C367 1.540       .   A
C367       C368 1.540       .   A
C82        C367 1.618       .   S
C315       H320 1.140       .   S
C596       H601 1.140       .   S
C256       H261 1.140       .   S
O87        Cu93 1.951       .   S
Cu93       Cu94 2.630       .   S
O92        Cu94 1.951       .   S
O91        Cu94 1.951       .   S
O90        Cu94 1.951       .   S
C354       C355 1.540       .   A
C355       C356 1.540       .   A
C355       H360 1.140       .   S
C353       C354 1.540       .   A
C69        C354 1.585   1_655   S
C55        C357 1.585       .   S
C356       C357 1.540       .   A
C357       C358 1.540       .   A
C356       H361 1.140       .   S
C263       H269 1.140       .   S
C353       C358 1.540       .   A
C353       H359 1.140       .   S
C255       H260 1.140       .   S
C358       H362 1.140       .   S
O77         C82 1.250       .   A
O72         C82 1.250       .   A
C533       C538 1.540       .   A
C533       C534 1.540       .   A
C533       H539 1.140       .   S
C534       C535 1.540       .   A
C535       C536 1.540       .   A
Cu23       Cu24 2.630       .   S
C537       C538 1.540       .   A
C168       C537 1.575   1_545   S
C536       C537 1.540       .   A
C538       H542 1.140       .   S
C433       C438 1.540       .   A
C438       H442 1.140       .   S
C437       C438 1.540       .   A
C518       H522 1.140       .   S
O113       C123 1.250       .   A
C433       H439 1.140       .   S
C433       C434 1.540       .   A
O117       C126 1.250       .   A
O116       C126 1.250       .   A
C484       C126 1.579       .   S
C516       H521 1.140       .   S
O119       C124 1.250       .   A
C504       C124 1.585       .   S
O114       C124 1.250       .   A
O118       C125 1.251       .   A
O115       C125 1.250       .   A
C515       H520 1.140       .   S
C426       H431 1.140       .   S
C425       H430 1.140       .   S
C428       H432 1.140       .   S
C377        C97 1.587       .   S
O87         C97 1.250       .   A
O90         C97 1.251       .   A
O91         C96 1.250       .   A
C95        C434 1.665       .   S
O92         C95 1.250       .   A
O202      Cu206 1.951       .   S
O202       C209 1.251       .   A
C387        C98 1.582   1_554   S
O201       C210 1.250       .   A
O201      Cu206 1.951       .   S
C544       C545 1.540       .   A
C544       C138 1.664       .   S
C543       C544 1.540       .   A
C545       C546 1.540       .   A
C545       H550 1.140       .   S
C546       C547 1.540       .   A
C546       H551 1.140       .   S
O213       C223 1.250       .   A
O214       C224 1.250       .   A
O215       C224 1.250       .   A
O216       C223 1.251       .   A
O217       C222 1.250       .   A
O218       C221 1.250       .   A
C547       C548 1.540       .   A
C543       C548 1.540       .   A
C507       C223 1.585   1_556   S
O212       C222 1.250       .   A
O131       C140 1.250       .   A
O130       C140 1.250       .   A
O133       C138 1.250       .   A
O132       C139 1.251       .   A
O134       C137 1.250       .   A
Cu163     Cu164 2.630       .   S
O159      Cu164 1.951       .   S
O157      Cu163 1.951       .   S
O156      Cu163 1.951       .   S
O155      Cu163 1.951       .   S
O158      Cu163 1.951       .   S
C253       C254 1.540       .   A
C435       H440 1.140       .   S
C436       H441 1.140       .   S
C316       H321 1.140       .   S
C256       C257 1.540       .   A
O145      Cu150 1.951       .   S
O146      Cu150 1.951       .   S
O147      Cu150 1.951       .   S
C483       C484 1.540       .   A
C483       H489 1.140       .   S
O148      Cu150 1.951       .   S
C486       C487 1.540       .   A
C466       C467 1.540       .   A
C467       C468 1.540       .   A
C313       C314 1.540       .   A
C313       H319 1.140       .   S
C593       H599 1.140       .   S
C314       C315 1.540       .   A
C315       C316 1.540       .   A
C27        C314 1.606       .   S
C316       C317 1.540       .   A
C463       C464 1.540       .   A
C463       C468 1.540       .   A
C583       H589 1.140       .   S
C25        C294 1.584       .   S
Cu233     Cu234 2.630       .   S
C534       C137 1.575       .   S
O159       C168 1.250       .   A
O158       C168 1.250       .   A
O156       C166 1.250       .   A
C337       C166 1.584   1_556   S
O157       C167 1.250       .   A
C454       C167 1.579       .   S
O155       C165 1.250       .   A
C165       C327 1.585       .   S
C363       C368 1.540       .   A
C56        C364 1.618       .   S
C364       C365 1.540       .   A
C363       C364 1.540       .   A
C365       C366 1.540       .   A
C363       H369 1.140       .   S
C182       C554 1.621       .   S
O246      Cu248 1.951       .   S
O245       C250 1.250       .   A
O245      Cu248 1.951       .   S
O244       C251 1.251       .   A
O244      Cu248 1.951       .   S
O243       C252 1.250       .   A
O243      Cu248 1.951       .   S
O242      Cu247 1.951       .   S
O242       C252 1.250       .   A
O241      Cu247 1.951       .   S
O241       C251 1.250       .   A
O240      Cu247 1.951       .   S
O240       C250 1.250       .   A
C263       C268 1.540       .   A
C263       C264 1.540       .   A
C265       H270 1.140       .   S
C264       C265 1.540       .   A
C265       C266 1.540       .   A
C14        C264 1.587       .   S
C267       C268 1.540       .   A
C266       C267 1.540       .   A
C266       H271 1.140       .   S
C268       H272 1.140       .   S
C503       C508 1.540       .   A
C507       C508 1.540       .   A
C465       C466 1.540       .   A
C464       C465 1.540       .   A
C464       C179 1.582       .   S
O74        Cu79 1.951       .   S
O71        Cu79 1.951       .   S
O73        Cu79 1.951       .   S
O72        Cu79 1.951       .   S
C503       C504 1.540       .   A
C504       C505 1.540       .   A
C505       C506 1.540       .   A
C506       C507 1.540       .   A
O119      Cu122 1.951       .   S
O118      Cu122 1.951       .   S
O117      Cu122 1.951       .   S
Cu121     Cu122 2.630       .   S
O113      Cu121 1.951       .   S
O116      Cu121 1.951       .   S
O115      Cu121 1.951       .   S
O114      Cu121 1.951       .   S
C558       H562 1.140       .   S
C556       H561 1.140       .   S
C555       H560 1.140       .   S
C434       C435 1.540       .   A
C435       C436 1.540       .   A
C210       C584 1.608       .   S
O78         C81 1.250       .   A
O75         C84 1.250       .   A
O74         C84 1.250       .   A
O76         C83 1.251       .   A
O71         C81 1.250       .   A
O73         C83 1.250       .   A
C603       C608 1.540       .   A
C603       H609 1.140       .   S
C603       C604 1.540       .   A
C607       C608 1.540       .   A
C606       C607 1.540       .   A
C605       C606 1.540       .   A
O183      Cu191 1.951       .   S
O184      Cu191 1.951       .   S
O185      Cu191 1.951       .   S
O186      Cu191 1.951       .   S
Cu191     Cu192 2.630       .   S
C251       C604 1.589   1_565   S
C604       C605 1.540       .   A
O106       C109 1.250       .   A
O63         C68 1.250       .   A
O62         C69 1.251       .   A
O64         C67 1.250       .   A
C323       C328 1.540       .   A
C323       H329 1.140       .   S
C323       C324 1.540       .   A
C324       C325 1.540       .   A
C325       C326 1.540       .   A
C326       C327 1.540       .   A
C327       C328 1.540       .   A
O6          C13 1.251       .   A
O3          C13 1.250       .   A
C13        C254 1.582       .   S
O7          C12 1.250       .   A
O2          C12 1.250       .   A
O1          C11 1.250       .   A
O8          C11 1.250       .   A
O5          C14 1.250       .   A
O4          C14 1.250       .   A
O31        Cu37 1.951       .   S
O30        Cu37 1.951       .   S
O32        Cu37 1.951       .   S
Cu37       Cu38 2.630       .   S
O33        Cu38 1.951       .   S
O35        Cu38 1.951       .   S
O34        Cu38 1.951       .   S
O36        Cu38 1.951       .   S
C514       C139 1.582       .   S
C423       C428 1.540       .   A
C427       C428 1.540       .   A
C423       C424 1.540       .   A
C427       C196 1.584   1_554   S
C426       C427 1.540       .   A
C425       C426 1.540       .   A
C424       C425 1.540       .   A
C84        C424 1.584       .   S
C83        C414 1.585       .   S
C556       C557 1.540       .   A
C194       C557 1.621   1_556   S
C557       C558 1.540       .   A
C555       C556 1.540       .   A
C554       C555 1.540       .   A
C553       C554 1.540       .   A
C553       H559 1.140       .   S
C553       C558 1.540       .   A
O204       C207 1.250       .   A
O204      Cu206 1.951       .   S
C413       H419 1.140       .   S
C254       C255 1.540       .   A
C255       C256 1.540       .   A
O4          Cu9 1.951       .   S
O3          Cu9 1.951       .   S
O2          Cu9 1.951       .   S
O1          Cu9 1.951       .   S
C446       H451 1.140       .   S
O211       C221 1.250       .   A
C453       H459 1.140       .   S
C406       H411 1.140       .   S
C221       C587 1.608   1_655   S
O188      Cu192 1.951       .   S
O189      Cu192 1.951       .   S
O187      Cu192 1.951       .   S
C54        C374 1.587       .   S
C384        C53 1.582       .   S
C583       C588 1.540       .   A
C583       C584 1.540       .   A
C584       C585 1.540       .   A
O203      Cu206 1.951       .   S
Cu205     Cu206 2.630       .   S
C587       C588 1.540       .   A
C586       C587 1.540       .   A
C474       C475 1.540       .   A
C473       C474 1.540       .   A
C475       H480 1.140       .   S
C377       C378 1.540       .   A
C373       C378 1.540       .   A
C376       C377 1.540       .   A
C375       C376 1.540       .   A
C374       C375 1.540       .   A
C373       C374 1.540       .   A
O186       C196 1.250       .   A
O187       C196 1.250       .   A
O188       C195 1.251       .   A
C417       C195 1.585       .   S
O185       C195 1.250       .   A
O189       C194 1.250       .   A
O184       C194 1.250       .   A
O183       C193 1.250       .   A
C473       H479 1.140       .   S
C473       C478 1.540       .   A
C297       C298 1.540       .   A
C298       H302 1.140       .   S
C293       C298 1.540       .   A
C436       C437 1.540       .   A
C293       C294 1.540       .   A
C296       C297 1.540       .   A
C296       H301 1.140       .   S
C297       C207 1.584   1_556   S
C453       C458 1.540       .   A
C453       C454 1.540       .   A
C513       C518 1.540       .   A
C517       C518 1.540       .   A
C455       C456 1.540       .   A
O99        C109 1.250       .   A
C454       C455 1.540       .   A
C513       C514 1.540       .   A
C516       C517 1.540       .   A
C515       C516 1.540       .   A
C514       C515 1.540       .   A
C385       H390 1.140       .   S
C386       H391 1.140       .   S
C388       H392 1.140       .   S
O203       C208 1.250       .   A
C416       C417 1.540       .   A
C415       C416 1.540       .   A
C585       C586 1.540       .   A
Cu247     Cu248 2.630       .   S
C333       C338 1.540       .   A
C333       C334 1.540       .   A
C337       C338 1.540       .   A
C336       C337 1.540       .   A
C335       C336 1.540       .   A
C334       C335 1.540       .   A
C417       C418 1.540       .   A
C414       C415 1.540       .   A
C413       C414 1.540       .   A
C413       C418 1.540       .   A
C386       C387 1.540       .   A
C385       C386 1.540       .   A
C387       C388 1.540       .   A
C384       C385 1.540       .   A
C383       C384 1.540       .   A
C383       C388 1.540       .   A
