data_vba_v1-4c_Cu_1_Ch_1B_4H_Ch
_audit_creation_date              2020-02-03
_audit_creation_method            'tobacco_3.0'
_symmetry_space_group_name_H-M    'P1'
_symmetry_Int_Tables_number       1
_symmetry_cell_setting            triclinic
loop_
_symmetry_equiv_pos_as_xyz
  x,y,z
_cell_length_a                    15.815326087359033
_cell_length_b                    68.63591156476063
_cell_length_c                    40.31857196489006
_cell_angle_alpha                 89.99802324578313
_cell_angle_beta                  89.99908950905927
_cell_angle_gamma                 90.00204345993137
loop_
_atom_site_label
_atom_site_type_symbol
_atom_site_fract_x
_atom_site_fract_y
_atom_site_fract_z
O1         O    0.3036428615    0.9540626654    0.4537204616
O2         O    0.2268059498    0.9498633091    0.5448451558
O3         O    0.3322189456    0.9285083163    0.5048484958
O4         O    0.1982221941    0.9754192160    0.4937200398
O5         O    0.0889733828    0.9574932415    0.4771544225
O6         O    0.2229682281    0.9105842338    0.4882791805
O7         O    0.1175571385    0.9319373346    0.5282795384
O8         O    0.1943940502    0.9361366909    0.4371548442
Cu9       Cu    0.2751925051    0.9535985192    0.5007970509
Cu10      Cu    0.1460074949    0.9324014808    0.4812029491
C11        C    0.2603472169    0.9457183334    0.4320014435
C12        C    0.1608527831    0.9402816666    0.5499985565
C13        C    0.2973546499    0.9126313463    0.4982021780
C14        C    0.1238453501    0.9733686537    0.4837978220
O15        O    0.4173189191    0.7857481577    0.5423215330
O16        O    0.3369270974    0.7816360936    0.4516598304
O17        O    0.4429893209    0.7600956351    0.4911015115
O18        O    0.3112489538    0.8072901839    0.5028769775
O19        O    0.4205609971    0.8249756418    0.4856366118
O20        O    0.5522993130    0.7777829340    0.4738649057
O21        O    0.4462391408    0.7993215516    0.4344194647
O22        O    0.5266309624    0.8034336156    0.5250811672
Cu23      Cu    0.3671460207    0.7820779033    0.4985614467
Cu24      Cu    0.4964120392    0.8029918059    0.4781795510
C25        C    0.4838307288    0.7951971384    0.5470688432
C26        C    0.3797273311    0.7898725708    0.4296721544
C27        C    0.5170641951    0.7619811263    0.4807508080
C28        C    0.3464938648    0.8230885829    0.4959901896
O29        O    0.3326232552    0.9527178698    0.2597953023
O30        O    0.4105544167    0.9487656741    0.1687822579
O31        O    0.3045637567    0.9273178126    0.2084034442
O32        O    0.4386216290    0.9741672960    0.2201712251
O33        O    0.5475908974    0.9561702769    0.2367932918
O34        O    0.4135348941    0.9093226743    0.2250292281
O35        O    0.5195236851    0.9307686551    0.1854043246
O36        O    0.4415925236    0.9347208508    0.2764173691
Cu37      Cu    0.3616462760    0.9523837942    0.2127693868
Cu38      Cu    0.4905006643    0.9311027307    0.2324302401
C39        C    0.3756177804    0.9443015719    0.2815260795
C40        C    0.4765291599    0.9391849530    0.1636735475
C41        C    0.3392792278    0.9114143638    0.2149837389
C42        C    0.5128677125    0.9720721611    0.2302158881
O43        O    0.2098895862    0.7832575264    0.1679993149
O44        O    0.2904994273    0.7792900119    0.2586501984
O45        O    0.1819384472    0.7580863688    0.2197288500
O46        O    0.3184584901    0.8044627127    0.2069234997
O47        O    0.2111432911    0.8228555985    0.2239401126
O48        O    0.0746254623    0.7764810593    0.2367416662
O49        O    0.1831842283    0.7976828978    0.2756668113
O50        O    0.1025743872    0.8016504123    0.1850159277
Cu51      Cu    0.2599892554    0.7795949974    0.2117744147
Cu52      Cu    0.1330845591    0.8013454268    0.2318917115
C53        C    0.1443440491    0.7930389222    0.1631417268
C54        C    0.2487297654    0.7879015021    0.2805243994
C55        C    0.1081573537    0.7604461459    0.2301194972
C56        C    0.2849164609    0.8204942784    0.2135466290
O57        O    0.4077488718    0.4500696389    0.6728071608
O58        O    0.3281503820    0.4542789056    0.7635644089
O59        O    0.4323530693    0.4760181855    0.7236746416
O60        O    0.3035385781    0.4283287768    0.7126998350
O61        O    0.4141782992    0.4110924215    0.7299484915
O62        O    0.5429908147    0.4587799669    0.7409195639
O63        O    0.4387901030    0.4370425503    0.7808130653
O64        O    0.5183885929    0.4328332835    0.6900558173
Cu65      Cu    0.3578514896    0.4537475161    0.7166142624
Cu66      Cu    0.4886874853    0.4333646731    0.7370059637
C67        C    0.4748075454    0.4408308862    0.6680499031
C68        C    0.3717314295    0.4462813030    0.7855703230
C69        C    0.5066603991    0.4744301676    0.7339114639
C70        C    0.3398785758    0.4126820216    0.7197087622
O71        O    0.2306556846    0.2850595322    0.6702909446
O72        O    0.3093412891    0.2809274955    0.7611803733
O73        O    0.2043227519    0.2593464755    0.7213747100
O74        O    0.3356818877    0.3066421228    0.7100995088
O75        O    0.2258128451    0.3242371391    0.7270534800
O76        O    0.0944558096    0.2769433372    0.7383249317
O77        O    0.1994722465    0.2985225118    0.7781343445
O78        O    0.1207866420    0.3026545484    0.6872449158
Cu79      Cu    0.2800262592    0.2813875439    0.7141910332
Cu80      Cu    0.1501016720    0.3021945000    0.7342342559
C81        C    0.1641169469    0.2944662351    0.6653668526
C82        C    0.2660109843    0.2891158088    0.7830584365
C83        C    0.1300256817    0.2611718481    0.7315084747
C84        C    0.3001022494    0.3224101959    0.7169168144
O85        O    0.2098644282    0.4509108168    1.0457127034
O86        O    0.2894689087    0.4553718304    0.9549904285
O87        O    0.1800462845    0.4761370334    0.9942228873
O88        O    0.3192950388    0.4301441027    1.0064773855
O89        O    0.2128884800    0.4114742819    0.9894525890
O90        O    0.0736420745    0.4574654043    0.9772018700
O91        O    0.1830623499    0.4367020096    0.9379656320
O92        O    0.1034578694    0.4322409959    1.0286879069
Cu93      Cu    0.2593784589    0.4548453792    1.0019026552
Cu94      Cu    0.1335483192    0.4327674472    0.9817756802
C95        C    0.1449214437    0.4409181826    1.0505767294
C96        C    0.2480053345    0.4466946438    0.9331016060
C97        C    0.1063172982    0.4735822581    0.9839093508
C98        C    0.2866094800    0.4140305683    0.9997689846
O99        O    0.4186815661    0.2871964902    1.0453511730
O100       O    0.3417335705    0.2831266733    0.9542253152
O101       O    0.4474464664    0.2617562982    0.9940773009
O102       O    0.3129609539    0.3085684205    1.0054962830
O103       O    0.4219889618    0.3265876802    0.9889967900
O104       O    0.5564721981    0.2797773827    0.9775815705
O105       O    0.4507615784    0.3011459329    0.9377258222
O106       O    0.5277095740    0.3052157498    1.0288516800
Cu107     Cu    0.3702566065    0.2835169008    1.0012913889
Cu108     Cu    0.4991865380    0.3048255222    0.9817856062
C109       C    0.4845435896    0.2968061493    1.0505373699
C110       C    0.3848995550    0.2915362737    0.9325396253
C111       C    0.5217838107    0.2638650463    0.9841495747
C112       C    0.3476593338    0.3244773768    0.9989274205
O113       O    0.3624539904    0.1816567671    0.4362677863
O114       O    0.4411485372    0.1858936016    0.5271417216
O115       O    0.3358195869    0.2073783073    0.4873114576
O116       O    0.4677906061    0.1601704940    0.4761009565
O117       O    0.5774142370    0.1778357237    0.4591066817
O118       O    0.4454449819    0.2250416333    0.4703134915
O119       O    0.5507721680    0.2035588312    0.5101474467
O120       O    0.4720776212    0.1993219967    0.4192735114
Cu121     Cu    0.3917990193    0.1821634492    0.4832581072
Cu122     Cu    0.5214271391    0.2030521491    0.4631571258
C123       C    0.4056631595    0.1898651990    0.4143714080
C124       C    0.5075629989    0.1953503993    0.5320438250
C125       C    0.3711697878    0.2231686803    0.4804629348
C126       C    0.5420563706    0.1620469180    0.4659522982
O127       O    0.7688180215    0.0526601350    0.4374108025
O128       O    0.6908056302    0.0487299088    0.5284165203
O129       O    0.7965409988    0.0272258106    0.4887839752
O130       O    0.6630749578    0.0741658020    0.4770462394
O131       O    0.5538864320    0.0562448071    0.4604040382
O132       O    0.6873506289    0.0093066988    0.4721380583
O133       O    0.5816171044    0.0308089139    0.5117743191
O134       O    0.6596294957    0.0347391401    0.4207686014
Cu135     Cu    0.7397743896    0.0523301067    0.4844348918
Cu136     Cu    0.6106607364    0.0311389422    0.4647502299
C137       C    0.7257258381    0.0442786103    0.4156710381
C138       C    0.6247092878    0.0391904386    0.5335140836
C139       C    0.7616286729    0.0113470283    0.4821891857
C140       C    0.5888064531    0.0721220206    0.4669959360
O141       O    0.3618874407    0.0531918386    0.7787101377
O142       O    0.4401935139    0.0490392543    0.6877725091
O143       O    0.3347430431    0.0275636421    0.7275715172
O144       O    0.4673455859    0.0746690174    0.7389082256
O145       O    0.5768102071    0.0569076882    0.7557625563
O146       O    0.4442094657    0.0098042099    0.7444295462
O147       O    0.5496581351    0.0312779250    0.7046268397
O148       O    0.4713520618    0.0354305094    0.7955644684
Cu149     Cu    0.3910527301    0.0527360540    0.7317007385
Cu150     Cu    0.5204928457    0.0317337097    0.7516362389
C151       C    0.4050743783    0.0449229338    0.8005459327
C152       C    0.5064711975    0.0395468298    0.6827910447
C153       C    0.3699206750    0.0117403189    0.7343314731
C154       C    0.5416249007    0.0727294447    0.7490055043
O155       O    0.7722866410    0.1809891574    0.7777706525
O156       O    0.6937890000    0.1851363832    0.6868582215
O157       O    0.8000995678    0.2064871984    0.7264955839
O158       O    0.6659683362    0.1596367846    0.7381303979
O159       O    0.5571623739    0.1776185989    0.7549626736
O160       O    0.6912917542    0.2244671248    0.7433315680
O161       O    0.5849830378    0.2031181975    0.7036904972
O162       O    0.6634806788    0.1989709717    0.7946029283
Cu163     Cu    0.7429654627    0.1814221409    0.7307758642
Cu164     Cu    0.6143042161    0.2026852140    0.7506852855
C165       C    0.7294572972    0.1893690961    0.7995917026
C166       C    0.6278123816    0.1947382588    0.6818694471
C167       C    0.7654765852    0.2223831728    0.7332005696
C168       C    0.5917930936    0.1617241821    0.7482605801
O169       O    0.7332425001    0.5514075190    0.9356447481
O170       O    0.6588506490    0.5466601277    1.0270033830
O171       O    0.7651192279    0.5258699186    0.9864959742
O172       O    0.6269661872    0.5721992449    0.9761551124
O173       O    0.5188676343    0.5538270465    0.9598471289
O174       O    0.6570185263    0.5074996116    0.9701843125
O175       O    0.5507520961    0.5282879293    1.0106953995
O176       O    0.6251439471    0.5330353206    0.9193367646
Cu177     Cu    0.7059097909    0.5507100635    0.9828148000
Cu178     Cu    0.5780848053    0.5289853848    0.9635253476
C179       C    0.6901615088    0.5429208788    0.9140200516
C180       C    0.5938330874    0.5367745695    1.0323200960
C181       C    0.7314425515    0.5098556091    0.9798623556
C182       C    0.5525520447    0.5698398392    0.9664777920
O183       O    0.3285274974    0.6790434123    0.9418207567
O184       O    0.4036932765    0.6828294713    1.0332105738
O185       O    0.3013497507    0.7047394768    0.9928575419
O186       O    0.4308784709    0.6571318084    0.9821767327
O187       O    0.5422579311    0.6744753306    0.9659985558
O188       O    0.4127310116    0.7220810977    0.9766756730
O189       O    0.5150727367    0.7001729934    1.0170323968
O190       O    0.4399069576    0.6963869344    0.9256425797
Cu191     Cu    0.3559478272    0.6793540539    0.9889945564
Cu192     Cu    0.4876524069    0.6998623518    0.9698585971
C193       C    0.3731349256    0.6871574541    0.9202563696
C194       C    0.4704653085    0.6920589515    1.0385967839
C195       C    0.3379379803    0.7204279724    0.9863389299
C196       C    0.5056622538    0.6587884332    0.9725142236
O197       O    0.4424894698    0.5462152736    0.1912004431
O198       O    0.3647585936    0.5499828183    0.2822625361
O199       O    0.4698413676    0.5716454372    0.2426078425
O200       O    0.3373990253    0.5245510782    0.2308580266
O201       O    0.4470640686    0.5067530907    0.2473968503
O202       O    0.5795042366    0.5538456252    0.2591428937
O203       O    0.4744236369    0.5321848309    0.2988013597
O204       O    0.5521545131    0.5284172862    0.2077392668
Cu205     Cu    0.3936149063    0.5497235274    0.2352247553
Cu206     Cu    0.5232982004    0.5286765771    0.2547770475
C207       C    0.5087854401    0.5367608243    0.1860433160
C208       C    0.4081276666    0.5416392801    0.3039584868
C209       C    0.5441960689    0.5696889345    0.2526040022
C210       C    0.3727170378    0.5087111699    0.2373978006
O211       O    0.7460251623    0.6822066978    0.2842307514
O212       O    0.6614196428    0.6861063759    0.1941333105
O213       O    0.7687215129    0.7078333947    0.2327542712
O214       O    0.6387154827    0.6604780940    0.2456069725
O215       O    0.5297688471    0.6780388703    0.2635508222
O216       O    0.6597733991    0.7253922745    0.2507018420
O217       O    0.5524730072    0.7036671522    0.2120771602
O218       O    0.6370785267    0.6997674741    0.3021746011
Cu219     Cu    0.7136626976    0.6825543252    0.2375420373
Cu220     Cu    0.5848354720    0.7033195248    0.2587658743
C221       C    0.7040260425    0.6904126153    0.3064874277
C222       C    0.5944721270    0.6954612347    0.1898204839
C223       C    0.7334204290    0.7235933026    0.2398354349
C224       C    0.5650777405    0.6622805474    0.2564724767
O225       O    0.9163331347    0.9487943917    0.6697608817
O226       O    0.8370144266    0.9528411716    0.7605772297
O227       O    0.9425012649    0.9744286681    0.7209689166
O228       O    0.8108385965    0.9272053241    0.7093720813
O229       O    0.9204384823    0.9095401749    0.7263833625
O230       O    1.0520990628    0.9567616793    0.7379764390
O231       O    0.9466143124    0.9351760224    0.7775885108
O232       O    1.0259330205    0.9311292426    0.6867721628
Cu233     Cu    0.8666705547    0.9524301490    0.7136191995
Cu234     Cu    0.9962768925    0.9315402652    0.7337301930
C235       C    0.9828306416    0.9393651918    0.6648762230
C236       C    0.8801168056    0.9446052224    0.7824731696
C237       C    1.0167085417    0.9725575784    0.7311787481
C238       C    0.8462389055    0.9114128358    0.7161706444
O239       O    0.7268176542    0.7831758194    0.6685556974
O240       O    0.8027619761    0.7791668356    0.7598191395
O241       O    0.6972524192    0.7578077165    0.7198666957
O242       O    0.8323349125    0.8045364929    0.7085110529
O243       O    0.7233181066    0.8226311059    0.7247734491
O244       O    0.5882379479    0.7759041489    0.7361253270
O245       O    0.6937451702    0.7972614485    0.7760815357
O246       O    0.6178008483    0.8012704323    0.6848180937
Cu247     Cu    0.7747397247    0.7795197722    0.7127059136
Cu248     Cu    0.6458230997    0.8009174957    0.7319313196
C249       C    0.6611092168    0.7928141870    0.6632306622
C250       C    0.7594536076    0.7876230809    0.7814065709
C251       C    0.6228327277    0.7599664208    0.7296665396
C252       C    0.7977300967    0.8204708471    0.7149706936
O253       O    0.8019041832    0.9540820554    0.9533857727
O254       O    0.7227174513    0.9498020492    1.0441895170
O255       O    0.8280531105    0.9283026597    1.0043861653
O256       O    0.6965608579    0.9755830133    0.9931920287
O257       O    0.5868647271    0.9579850327    0.9760714715
O258       O    0.7183552510    0.9107065868    0.9872619204
O259       O    0.6130213204    0.9322040686    1.0270689599
O260       O    0.6922080523    0.9364840747    0.9362652156
Cu261     Cu    0.7723196623    0.9535476490    1.0003525202
Cu262     Cu    0.6426058413    0.9327384749    0.9801022124
C263       C    0.7587313313    0.9459136139    0.9314366009
C264       C    0.6561941723    0.9403725101    1.0490181316
C265       C    0.7925961145    0.9125352178    0.9974720978
C266       C    0.6223293891    0.9737509061    0.9829826348
O267       O    0.8992619527    0.7859171697    1.0432072883
O268       O    0.8223517921    0.7817490830    0.9520893922
O269       O    0.9244268967    0.7598482041    0.9925612246
O270       O    0.7971793966    0.8078196426    1.0027325064
O271       O    0.9090324240    0.8248004032    0.9859530192
O272       O    1.0362779057    0.7768308371    0.9757854546
O273       O    0.9342048195    0.7987298436    0.9353099049
O274       O    1.0111149801    0.8028979303    1.0264278010
Cu275     Cu    0.8505980800    0.7822832070    0.9991770419
Cu276     Cu    0.9828686922    0.8023638064    0.9793401513
C277       C    0.9665308997    0.7950220480    1.0482523182
C278       C    0.8669358726    0.7896249653    0.9302648750
C279       C    0.9991097129    0.7612668602    0.9826774299
C280       C    0.8343570594    0.8233801531    0.9958397633
O281       O    0.9229048873    0.5505747539    0.6868571065
O282       O    0.8435756354    0.5549113071    0.7776332463
O283       O    0.9494850126    0.5763046015    0.7378933041
O284       O    0.8169877794    0.5291799026    0.7265999448
O285       O    0.9262543914    0.5114509365    0.7437481699
O286       O    1.0587495072    0.5585737888    0.7550377829
O287       O    0.9528422474    0.5371823410    0.7947814715
O288       O    1.0321714993    0.5328457878    0.7040053316
Cu289     Cu    0.8732674519    0.5543612290    0.7306828208
Cu290     Cu    1.0024796828    0.5333958659    0.7509557571
C291       C    0.9892373127    0.5410709178    0.6820468483
C292       C    0.8865098220    0.5466861771    0.7995917297
C293       C    1.0236486858    0.5743870504    0.7481268702
C294       C    0.8520984489    0.5133700445    0.7335117078
O295       O    0.2612029480    0.6818181470    0.7796315741
O296       O    0.1886630477    0.6858551897    0.6879465347
O297       O    0.2940134194    0.7069774916    0.7283261719
O298       O    0.1558449092    0.6606943040    0.7392489907
O299       O    0.0473402408    0.6791601876    0.7548139608
O300       O    0.1855065349    0.7254415112    0.7438948545
O301       O    0.0801583792    0.7043210732    0.7035115047
O302       O    0.1526982795    0.7002840306    0.7951965441
Cu303     Cu    0.2348333251    0.6821518593    0.7323661128
Cu304     Cu    0.1065280020    0.7039873610    0.7507769660
C305       C    0.2176458292    0.6904563694    0.8009328778
C306       C    0.1237154980    0.6956828508    0.6822102010
C307       C    0.2601358890    0.7230318744    0.7345025466
C308       C    0.0812254382    0.6631073458    0.7486405322
O309       O    0.1639039774    0.5464177073    0.5273765612
O310       O    0.2454788894    0.5499860115    0.4368093176
O311       O    0.1391310302    0.5717980489    0.4756949694
O312       O    0.2702595992    0.5246040825    0.4884880756
O313       O    0.1609938874    0.5068794072    0.4713228259
O314       O    0.0298673040    0.5540715526    0.4585335131
O315       O    0.1362131775    0.5322613363    0.4196440679
O316       O    0.0546382655    0.5286930321    0.5102113115
Cu317     Cu    0.2146642278    0.5498196457    0.4836568477
Cu318     Cu    0.0854529270    0.5288593979    0.4633637814
C319       C    0.0972408947    0.5370292931    0.5321474965
C320       C    0.2028762601    0.5416497505    0.4148731326
C321       C    0.0651694428    0.5698928921    0.4652318105
C322       C    0.2349477121    0.5087861515    0.4817888186
O323       O    0.9427816843    0.6855968188    0.5266153340
O324       O    0.8599167317    0.6812456390    0.4363293900
O325       O    0.9648590287    0.6594624130    0.4758455722
O326       O    0.8378317268    0.7073816303    0.4870962722
O327       O    0.9483622382    0.7243956998    0.4691094451
O328       O    1.0753877488    0.6764783597    0.4578624734
O329       O    0.9704472430    0.6982597085    0.4183425629
O330       O    1.0533121956    0.7026108883    0.5086285069
Cu331     Cu    0.8912609399    0.6818682651    0.4831112585
Cu332     Cu    1.0219679874    0.7019882622    0.4618466384
C333       C    1.0102673704    0.6947453489    0.5309340026
C334       C    0.9029615569    0.6891111784    0.4140238943
C335       C    1.0388484807    0.6609054291    0.4651990026
C336       C    0.8743804466    0.7229510982    0.4797588943
O337       O    0.7886899687    0.4536859526    0.4558847592
O338       O    0.7137721616    0.4497105271    0.5472839972
O339       O    0.8203056731    0.4285864180    0.5073889450
O340       O    0.6821487039    0.4748116028    0.4957827222
O341       O    0.5741711651    0.4562936966    0.4798328544
O342       O    0.7123260046    0.4100703715    0.4914353508
O343       O    0.6057946229    0.4311926209    0.5313341294
O344       O    0.6807124300    0.4351680464    0.4399348914
Cu345     Cu    0.7610832239    0.4533877982    0.5030424391
Cu346     Cu    0.6334013677    0.4314907753    0.4841764495
C347       C    0.7457470369    0.4450126332    0.4344331463
C348       C    0.6487375548    0.4398659402    0.5527857423
C349       C    0.7866901045    0.4125145728    0.5011208887
C350       C    0.6077944871    0.4723640007    0.4860979999
O351       O    0.9145991402    0.2860155320    0.5447856634
O352       O    0.8349784125    0.2819642816    0.4540113895
O353       O    0.9417904645    0.2605750871    0.4933802022
O354       O    0.8077792918    0.3074062832    0.5054139816
O355       O    0.9163678898    0.3254106357    0.4884285808
O356       O    1.0503769016    0.2785812646    0.4763985745
O357       O    0.9435670105    0.2999686341    0.4370259887
O358       O    1.0231877382    0.3040198845    0.5278002627
Cu359     Cu    0.8648778384    0.2823465867    0.5009460201
Cu360     Cu    0.9932883123    0.3036375794    0.4808656320
C361       C    0.9806355362    0.2956149997    0.5496770563
C362       C    0.8775306145    0.2903691664    0.4321345959
C363       C    1.0158383355    0.2626735698    0.4831188998
C364       C    0.8423278152    0.3233105964    0.4986927523
O365       O    0.8122886457    0.4537488241    0.2640487997
O366       O    0.8902858125    0.4499776814    0.1730221792
O367       O    0.7841143483    0.4284763617    0.2124845991
O368       O    0.9184678369    0.4752517125    0.2245835004
O369       O    1.0273019533    0.4571787844    0.2411028082
O370       O    0.8929503424    0.4104053053    0.2290076368
O371       O    0.9991199289    0.4319047534    0.1895414870
O372       O    0.9211227621    0.4356758961    0.2805681075
Cu373     Cu    0.8413570031    0.4535122074    0.2170254717
Cu374     Cu    0.9700515716    0.4321413702    0.2365648150
C375       C    0.8552058591    0.4452678755    0.2857301957
C376       C    0.9562027156    0.4403857021    0.1678600910
C377       C    0.8187186701    0.4125458799    0.2189647103
C378       C    0.9926899045    0.4731076976    0.2346255764
O379       O    0.7222446459    0.2855184743    0.1702401529
O380       O    0.8003340372    0.2812549189    0.2611910861
O381       O    0.6964216552    0.2595980190    0.2210595352
O382       O    0.8261646132    0.3071769505    0.2103746285
O383       O    0.7155279247    0.3245089145    0.2273457442
O384       O    0.5857870312    0.2769318441    0.2380269207
O385       O    0.6896973488    0.2985868829    0.2781622018
O386       O    0.6116079574    0.3028504384    0.1872112687
Cu387     Cu    0.7713871569    0.2818047269    0.2141694283
Cu388     Cu    0.6405548377    0.3023006304    0.2342329265
C389       C    0.6554099950    0.2948130380    0.1653155612
C390       C    0.7565319997    0.2892923192    0.2830867936
C391       C    0.6219790563    0.2612501250    0.2311148558
C392       C    0.7899629383    0.3228552322    0.2172874990
O393       O    0.1916303313    0.0489829155    1.0287289655
O394       O    0.2702004449    0.0532764977    0.9378447000
O395       O    0.1645026027    0.0746677957    0.9776690950
O396       O    0.2973358887    0.0275900607    0.9889016682
O397       O    0.1880231125    0.0098167473    0.9719293295
O398       O    0.0551919839    0.0568926392    0.9607005041
O399       O    0.1608876687    0.0355031843    0.9208723613
O400       O    0.0823175551    0.0312096021    1.0117566268
Cu401     Cu    0.2408923881    0.0527519507    0.9848331350
Cu402     Cu    0.1116256118    0.0317341491    0.9647681918
C403       C    0.1253867537    0.0394632409    1.0336431124
C404       C    0.2271312462    0.0450228589    0.9159582144
C405       C    0.0902663514    0.0727211522    0.9675324307
C406       C    0.2622516486    0.0117649476    0.9820688961
O407       O    0.9441480334    0.1859190078    1.0274680591
O408       O    0.8658682794    0.1819296840    0.9365065668
O409       O    0.9705745412    0.1602658138    0.9763082161
O410       O    0.8394341284    0.2075844547    0.9876635092
O411       O    0.9494840425    0.2251699782    0.9708546301
O412       O    1.0806223478    0.1778531785    0.9595030918
O413       O    0.9759181935    0.1995152075    0.9196976877
O414       O    1.0541979474    0.2035045313    1.0106591800
Cu415     Cu    0.8949638886    0.1823192460    0.9835186959
Cu416     Cu    1.0251023382    0.2031149693    0.9636470509
C417       C    1.0107173664    0.1952999215    1.0324753241
C418       C    0.9093488604    0.1901342938    0.9146904227
C419       C    1.0449297785    0.1620830438    0.9662351892
C420       C    0.8751364483    0.2233511715    0.9809305576
O421       O    0.9397070654    0.0477234712    0.1883138045
O422       O    0.8612393589    0.0517457769    0.2792469763
O423       O    0.9670860546    0.0732252065    0.2396161309
O424       O    0.8338526436    0.0262424784    0.2279475380
O425       O    0.9430295932    0.0083660844    0.2447363026
O426       O    1.0762608287    0.0553469829    0.2564011303
O427       O    0.9704163085    0.0338693829    0.2960357408
O428       O    1.0488840150    0.0298470772    0.2051025691
Cu429     Cu    0.8905086116    0.0513662670    0.2322508437
Cu430     Cu    1.0196147622    0.0302265871    0.2520987017
C431       C    1.0058676307    0.0381922531    0.1833006597
C432       C    0.9042557432    0.0434006010    0.3010488856
C433       C    1.0413133735    0.0712130360    0.2497252848
C434       C    0.8688100004    0.0103798181    0.2346242605
O435       O    0.2711305733    0.1803311367    0.2778773142
O436       O    0.1930860345    0.1843995296    0.1868945643
O437       O    0.2984533346    0.2059068995    0.2266739272
O438       O    0.1657556049    0.1588221978    0.2380950488
O439       O    0.0562675219    0.1766079056    0.2548504143
O440       O    0.1889634371    0.2236907140    0.2434329959
O441       O    0.0835979515    0.2021852374    0.2036499298
O442       O    0.1616424903    0.1981168444    0.2946326797
Cu443     Cu    0.2420981997    0.1807425986    0.2308543840
Cu444     Cu    0.1126303251    0.2017737755    0.2506728600
C445       C    0.2278933426    0.1886246446    0.2996702777
C446       C    0.1268351822    0.1938917294    0.1818569662
C447       C    0.2632779906    0.2217393678    0.2333719638
C448       C    0.0914505342    0.1607770063    0.2481552802
C1079      C    1.1437101490    0.1023780179    0.2477368945
C1080      C    1.0539254238    0.0937429376    0.2493303486
C1081      C    0.9765972287    0.1073599408    0.2505337366
C1082      C    0.9890537587    0.1296120244    0.2501436704
C1083      C    1.0788384839    0.1382471046    0.2485502163
C1084      C    1.1561666790    0.1246301014    0.2473468284
H1085      H    1.2009530986    0.0922978986    0.2468460749
H1086      H    0.9101364470    0.1009687161    0.2517132437
H1087      H    0.9318108091    0.1396921436    0.2510344901
H1088      H    1.2226274607    0.1310213262    0.2461673212
C1069      C    0.9739675624    0.1939761831    1.0985212945
C1070      C    1.0403797635    0.1949401976    1.0706349946
C1071      C    1.1351884754    0.1955598400    1.0792798453
C1072      C    1.1635849862    0.1952154678    1.1158109958
C1073      C    1.0971727851    0.1942514533    1.1436972958
C1074      C    1.0023640732    0.1936318110    1.1350524451
H1075      H    0.9037844900    0.1935174868    1.0921218596
H1076      H    1.1843495510    0.1962734197    1.0586387788
H1077      H    1.2337680586    0.1956741641    1.1222104308
H1078      H    0.9532029976    0.1929182312    1.1556935116
C1059      C    0.1313200734    0.0400491213    1.1365886138
C1060      C    0.0365205234    0.0385182215    1.1449182099
C1061      C   -0.0291723578    0.0372968472    1.1168014822
C1062      C   -0.0000656890    0.0376063727    1.0803551583
C1063      C    0.0947338610    0.0391372725    1.0720255622
C1064      C    0.1604267422    0.0403586468    1.1001422900
H1065      H    0.1799498686    0.0409532555    1.1574022954
H1066      H   -0.0993447268    0.0361636420    1.1229661298
H1067      H   -0.0486954842    0.0367022386    1.0595414767
H1068      H    0.2305991112    0.0414918520    1.0939776424
C1049      C    0.1558583195    0.1085129114    0.9724771474
C1050      C    0.0789039882    0.0951172489    0.9672073129
C1051      C   -0.0093562663    0.1040064356    0.9616139754
C1052      C   -0.0206621896    0.1262912847    0.9612904725
C1053      C    0.0562921417    0.1396869471    0.9665603071
C1054      C    0.1445523963    0.1307977605    0.9721536445
H1055      H    0.2211938326    0.1019326044    0.9766176700
H1056      H   -0.0663203820    0.0940912952    0.9577130856
H1057      H   -0.0859977027    0.1328715917    0.9571499500
H1058      H    0.2015165120    0.1407129009    0.9760545344
C1039      C    0.4502000918    0.2638639161    0.2324001996
C1040      C    0.5304738031    0.2511708635    0.2316906479
C1041      C    0.5229022348    0.2288016938    0.2315338581
C1042      C    0.4350569551    0.2191255767    0.2320866199
C1043      C    0.3547832438    0.2318186293    0.2327961717
C1044      C    0.3623548121    0.2541877990    0.2329529615
H1045      H    0.4558050190    0.2804229119    0.2325162648
H1046      H    0.5823203110    0.2194056334    0.2310086454
H1047      H    0.4294520279    0.2025665809    0.2319705547
H1048      H    0.3029367359    0.2635838594    0.2334781742
C1029      C    0.7251347617    0.3802588240    0.2241701225
C1030      C    0.8115145287    0.3900757818    0.2185445204
C1031      C    0.8907205712    0.3775175140    0.2125005025
C1032      C    0.8835468468    0.3551422882    0.2120820867
C1033      C    0.7971670798    0.3453253303    0.2177076889
C1034      C    0.7179610372    0.3578835982    0.2237517068
H1035      H    0.6665017172    0.3895552041    0.2286442656
H1036      H    0.9546610744    0.3847835939    0.2083362605
H1037      H    0.9421798913    0.3458459081    0.2076079436
H1038      H    0.6540205340    0.3506175183    0.2279159487
C1019      C    0.9121535624    0.2897245802    0.3657745433
C1020      C    0.8465753700    0.2900936751    0.3940034887
C1021      C    0.7514531147    0.2901998377    0.3858396401
C1022      C    0.7219090518    0.2899369054    0.3494468462
C1023      C    0.7874872441    0.2895678106    0.3212179008
C1024      C    0.8826094994    0.2894616479    0.3293817494
H1025      H    0.9825687384    0.2896459923    0.3718179117
H1026      H    0.7029093595    0.2904730438    0.4067343468
H1027      H    0.6514938758    0.2900154933    0.3434034777
H1028      H    0.9311532546    0.2891884419    0.3084870427
C1009      C    0.7241317393    0.3762453101    0.5008404172
C1010      C    0.8006585318    0.3901189846    0.5005112798
C1011      C    0.8910357523    0.3817862590    0.4995776831
C1012      C    0.9048861804    0.3595798590    0.4989732239
C1013      C    0.8283593879    0.3457061846    0.4993023613
C1014      C    0.7379821674    0.3540389101    0.5002359579
H1015      H    0.6572291215    0.3824136914    0.5015315212
H1016      H    0.9476834723    0.3920552398    0.4993340273
H1017      H    0.9717887982    0.3534114778    0.4982821199
H1018      H    0.6813344474    0.3437699293    0.5004796138
C999       C    0.8679868680    0.4452499212    0.3876059705
C1000      C    0.7734640154    0.4450772653    0.3967788357
C1001      C    0.7059535954    0.4449675984    0.3692545361
C1002      C    0.7329660279    0.4450305875    0.3325573715
C1003      C    0.8274888805    0.4452032435    0.3233845063
C1004      C    0.8949993006    0.4453129103    0.3509088059
H1005      H    0.9179621141    0.4453311031    0.4079811014
H1006      H    0.6359859793    0.4448397956    0.3760433872
H1007      H    0.6829907819    0.4449494056    0.3121822406
H1008      H    0.9649669166    0.4454407131    0.3441199548
C989       C    0.4094497689    0.5126355441    0.4787744899
C990       C    0.3317539085    0.4993294789    0.4829076574
C991       C    0.3436752391    0.4772690109    0.4880765767
C992       C    0.4332924303    0.4685146081    0.4891123285
C993       C    0.5109882908    0.4818206733    0.4849791610
C994       C    0.4990669601    0.5038811413    0.4798102418
H995       H    0.4006248878    0.5289660204    0.4749481471
H996       H    0.2861654166    0.4674192107    0.4911360962
H997       H    0.4421173115    0.4521841318    0.4929386714
H998       H    0.5565767826    0.5137309416    0.4767507223
C979       C   -0.0288943256    0.6029128708    0.4654167294
C980       C    0.0584835441    0.5930113707    0.4652234768
C981       C    0.1393868315    0.6054976605    0.4650221541
C982       C    0.1329122491    0.6278854504    0.4650140838
C983       C    0.0455343794    0.6377869504    0.4652073363
C984       C   -0.0353689080    0.6253006606    0.4654086591
H985       H   -0.0887837721    0.5936697731    0.4655657605
H986       H    0.2040661805    0.5981690006    0.4648791029
H987       H    0.1928016956    0.6371285481    0.4648650526
H988       H   -0.1000482569    0.6326293206    0.4655517103
C969       C   -0.0276398822    0.6954481356    0.5975801682
C970       C    0.0395124275    0.6949870214    0.5699305127
C971       C    0.1341437438    0.6947529857    0.5789224463
C972       C    0.1616227505    0.6949800641    0.6155640354
C973       C    0.0944704409    0.6954411783    0.6432136909
C974       C   -0.0001608754    0.6956752140    0.6342217573
H975       H   -0.0976916358    0.6956213828    0.5909238017
H976       H    0.1838526396    0.6944116633    0.5584565542
H977       H    0.2316745042    0.6948068169    0.6222204019
H978       H   -0.0498697712    0.6960165364    0.6546876494
C959       C    1.1061709894    0.6055073729    0.7708925144
C960       C    1.0380359476    0.5965564514    0.7482552239
C961       C    0.9843020201    0.6097962766    0.7257464107
C962       C    0.9987031345    0.6319870233    0.7258748880
C963       C    1.0668381764    0.6409379448    0.7485121785
C964       C    1.1205721039    0.6276981196    0.7710209917
H965       H    1.1459480526    0.5957064634    0.7875548826
H966       H    0.9338670037    0.6031712553    0.7089896564
H967       H    0.9589260714    0.6417879329    0.7092125198
H968       H    1.1710071203    0.6343231409    0.7877777459
C949       C    1.0927785317    0.5520372992    0.6314383416
C950       C    1.0167815514    0.5400401791    0.6438178983
C951       C    0.9672421235    0.5270529853    0.6194767291
C952       C    0.9936996758    0.5260629117    0.5827560031
C953       C    1.0696966560    0.5380600318    0.5703764464
C954       C    1.1192360840    0.5510472256    0.5947176157
H955       H    1.1294505758    0.5616511960    0.6494571292
H956       H    0.9109878610    0.5181723485    0.6286392626
H957       H    0.9570276317    0.5164490149    0.5647372155
H958       H    1.1754903465    0.5599278624    0.5855550821
C939       C    0.5209564164    1.0054396032    0.9889059247
C940       C    0.5308136946    0.9834123792    0.9827504032
C941       C    0.4521477970    0.9707307029    0.9763702439
C942       C    0.3636246212    0.9800762505    0.9761456062
C943       C    0.3537673430    1.0021034745    0.9823011277
C944       C    0.4324332406    1.0147851508    0.9886812869
H945       H    0.5791896134    1.0148273376    0.9936288997
H946       H    0.4594416297    0.9544258287    0.9718137468
H947       H    0.3053914243    0.9706885161    0.9714226311
H948       H    0.4251394079    1.0310900250    0.9932377840
C929       C    0.8855678514    0.8811150355    0.9841004189
C930       C    0.8030280117    0.8902642545    0.9970643401
C931       C    0.7309367472    0.8771069045    1.0096198518
C932       C    0.7413853225    0.8548003354    1.0092114422
C933       C    0.8239251622    0.8456511164    0.9962475210
C934       C    0.8960164266    0.8588084665    0.9836920094
H935       H    0.9389341121    0.8908548920    0.9748060792
H936       H    0.6698387697    0.8838787075    1.0192160975
H937       H    0.6880190617    0.8450604789    1.0185057819
H938       H    0.9571144041    0.8520366634    0.9740957636
C919       C    0.7345049235    0.7769845110    0.8451789025
C920       C    0.7866657151    0.7881299133    0.8190941668
C921       C    0.8653555318    0.7997694253    0.8297509873
C922       C    0.8918845568    0.8002635351    0.8664925434
C923       C    0.8397237651    0.7891181329    0.8925772790
C924       C    0.7610339484    0.7774786209    0.8819204585
H925       H    0.6762540202    0.7683682489    0.8372900873
H926       H    0.9039672547    0.8080195808    0.8104434960
H927       H    0.9501354600    0.8088797973    0.8743813586
H928       H    0.7224222255    0.7692284654    0.9012279499
C909       C    0.4972213311    0.7388061719    0.7011022752
C910       C    0.5305076099    0.7505646671    0.7308975537
C911       C    0.4747705871    0.7532576428    0.7618798216
C912       C    0.3857472856    0.7441921233    0.7630668110
C913       C    0.3524610068    0.7324336281    0.7332715325
C914       C    0.4081980296    0.7297406524    0.7022892646
H915       H    0.5384812051    0.7368126703    0.6781673496
H916       H    0.4994072084    0.7619613244    0.7839351613
H917       H    0.3444874116    0.7461856248    0.7860017366
H918       H    0.3835614083    0.7210369708    0.6802339249
C899       C    0.9143097217    0.9436207007    0.8488415076
C900       C    0.8490683737    0.9449398877    0.8205755947
C901       C    0.7541827204    0.9465786051    0.8286889723
C902       C    0.7245384151    0.9468981356    0.8650682629
C903       C    0.7897797631    0.9455789486    0.8933341758
C904       C    0.8846654165    0.9439402312    0.8852207981
H905       H    0.9845497508    0.9424076241    0.8428355008
H906       H    0.7058883036    0.9475551145    0.8077669008
H907       H    0.6542983860    0.9481112122    0.8710742697
H908       H    0.9329598333    0.9429637218    0.9061428697
C889       C    0.9116211167    0.8747075250    0.7154995379
C890       C    0.8338630574    0.8882111893    0.7158645060
C891       C    0.7442264418    0.8794455057    0.7159356370
C892       C    0.7323478855    0.8571761579    0.7156418000
C893       C    0.8101059448    0.8436724936    0.7152768320
C894       C    0.8997425604    0.8524381772    0.7152057009
H895       H    0.9779754945    0.8811964076    0.7154468825
H896       H    0.6866673659    0.8894405926    0.7162057873
H897       H    0.6659935077    0.8506872753    0.7156944555
H898       H    0.9573016363    0.8424430903    0.7149355506
C879       C    0.9003379964    0.6896228546    0.3562835528
C880       C    0.8606751961    0.6893878160    0.3911656036
C881       C    0.7638309994    0.6895268582    0.3951377119
C882       C    0.7066496030    0.6899009392    0.3642277693
C883       C    0.7463124032    0.6901359778    0.3293457184
C884       C    0.8431565999    0.6899969355    0.3253736102
H885       H    0.9720278563    0.6895199272    0.3533431610
H886       H    0.7344696708    0.6893528879    0.4209574076
H887       H    0.6349597431    0.6900038666    0.3671681611
H888       H    0.8725179286    0.6901709059    0.2995539145
C869       C    0.4694989297    0.6058653747    0.2476908779
C870       C    0.5495850315    0.5935841836    0.2536023449
C871       C    0.6347230065    0.6037035499    0.2604497065
C872       C    0.6397748796    0.6261041072    0.2613856010
C873       C    0.5596887778    0.6383852983    0.2554741340
C874       C    0.4745508029    0.6282659321    0.2486267724
H875       H    0.4064747145    0.5983744153    0.2426220518
H876       H    0.6940051488    0.5946133761    0.2648255701
H877       H    0.7027990949    0.6335950666    0.2664544271
H878       H    0.4152686606    0.6373561058    0.2442509088
C859       C    0.2587712398    0.4774163625    0.2424101396
C860       C    0.2728953610    0.4993592106    0.2366696208
C861       C    0.1968275923    0.5128522819    0.2302711698
C862       C    0.1066357025    0.5044025051    0.2296132374
C863       C    0.0925115813    0.4824596570    0.2353537562
C864       C    0.1685793500    0.4689665857    0.2417522072
H865       H    0.3150811465    0.4674279850    0.2471466553
H866       H    0.2072798093    0.5290947271    0.2260218557
H867       H    0.0503257958    0.5143908826    0.2248767217
H868       H    0.1581271330    0.4527241405    0.2460015213
C849       C    0.4023450135    0.5417807962    0.3633914470
C850       C    0.3627043009    0.5416415973    0.3285045623
C851       C    0.2658612507    0.5415053164    0.3245289250
C852       C    0.2086589132    0.5415082345    0.3554401724
C853       C    0.2482996258    0.5416474333    0.3903270571
C854       C    0.3451426760    0.5417837142    0.3943026944
H855       H    0.4740340247    0.5418816794    0.3663344512
H856       H    0.2365162713    0.5414022776    0.2987056511
H857       H    0.1369699020    0.5414073512    0.3524971682
H858       H    0.3744876554    0.5418867530    0.4201259683
C839       C    0.5978357562    0.6935361890    1.0859006156
C840       C    0.5026714742    0.6929425682    1.0778715238
C841       C    0.4373044358    0.6931664723    1.1061795420
C842       C    0.4671016794    0.6939839972    1.1425166522
C843       C    0.5622659614    0.6945776180    1.1505457440
C844       C    0.6276329997    0.6943537139    1.1222377257
H845       H    0.6462243430    0.6933704418    1.0649453294
H846       H    0.3668621038    0.6927270834    1.1002373326
H847       H    0.4187130925    0.6941497444    1.1634719384
H848       H    0.6980753317    0.6947931028    1.1281799351
C829       C    0.1735927309    0.7191687573    0.9941542248
C830       C    0.2547806600    0.7304509038    0.9854403020
C831       C    0.2497117757    0.7521295628    0.9757942570
C832       C    0.1634549623    0.7625260753    0.9748621349
C833       C    0.0822670332    0.7512439288    0.9835760578
C834       C    0.0873359176    0.7295652698    0.9932221027
H835       H    0.1773450220    0.7031209188    1.0012948036
H836       H    0.3098066318    0.7604812536    0.9693439370
H837       H    0.1597026712    0.7785739138    0.9677215562
H838       H    0.0272410614    0.7212135790    0.9996724227
C819       C    0.2185487919    0.7022734142    0.8556138183
C820       C    0.2511104783    0.6897463708    0.8266138990
C821       C    0.3279520639    0.6762798684    0.8315947044
C822       C    0.3722319630    0.6753404094    0.8655754291
C823       C    0.3396702765    0.6878674528    0.8945753484
C824       C    0.2628286910    0.7013339552    0.8895945430
H825       H    0.1616660597    0.7122421238    0.8519267286
H826       H    0.3520565403    0.6670069692    0.8101292248
H827       H    0.4291146951    0.6653716998    0.8692625188
H828       H    0.2387242146    0.7106068543    0.9110600225
C809       C    0.4601988472    0.6014444273    0.9537378239
C810       C    0.5408396571    0.5920579039    0.9679856048
C811       C    0.6097479591    0.6049276128    0.9837437887
C812       C    0.5980154513    0.6271838451    0.9852541917
C813       C    0.5173746414    0.6365703685    0.9710064108
C814       C    0.4484663393    0.6237006596    0.9552482269
H815       H    0.4091888054    0.5919174999    0.9420726748
H816       H    0.6694401808    0.5979801489    0.9942904442
H817       H    0.6490254930    0.6367107725    0.9969193409
H818       H    0.3887741177    0.6306481236    0.9447015714
C799       C    0.6440200853    0.5372477318    1.0975312431
C800       C    0.5719607596    0.5367710345    1.0718542249
C801       C    0.4792499380    0.5362909997    1.0835046878
C802       C    0.4585984422    0.5362876620    1.1208321689
C803       C    0.5306577678    0.5367643593    1.1465091871
C804       C    0.6233685894    0.5372443941    1.1348587242
H805       H    0.7126501740    0.5376030823    1.0889068745
H806       H    0.4259089472    0.5359381349    1.0644990189
H807       H    0.3899683535    0.5359323116    1.1294565375
H808       H    0.6767095802    0.5375972589    1.1538643932
C789       C    0.6912313945    0.5442014482    0.8541568826
C790       C    0.7340216648    0.5437619687    0.8884591290
C791       C    0.8311259357    0.5443640485    0.8911081371
C792       C    0.8854399364    0.5454056078    0.8594548987
C793       C    0.8426496661    0.5458450873    0.8251526523
C794       C    0.7455453951    0.5452430075    0.8225036443
H795       H    0.6193490121    0.5437557527    0.8521959286
H796       H    0.8628022148    0.5440387663    0.9164986218
H797       H    0.9573223188    0.5458513032    0.8614158527
H798       H    0.7138691161    0.5455682896    0.7971131596
C779       C    0.7230258821    0.1929254009    0.8578553907
C780       C    0.7685109693    0.1895352172    0.8245791316
C781       C    0.8648881660    0.1863615113    0.8238648035
C782       C    0.9157802755    0.1865779890    0.8564267345
C783       C    0.8702951883    0.1899681727    0.8897029936
C784       C    0.7739179916    0.1931418786    0.8904173217
H785       H    0.6516817234    0.1952747676    0.8583841790
H786       H    0.8985591160    0.1838520089    0.7992338122
H787       H    0.9871244342    0.1842286223    0.8558979462
H788       H    0.7402470416    0.1956513810    0.9150483130
C769       C    0.2693023800   -0.0187703708    0.7477519499
C770       C    0.2810342128    0.0018799125    0.7335380843
C771       C    0.2050464412    0.0127992319    0.7185412450
C772       C    0.1173268367    0.0030682680    0.7177582714
C773       C    0.1055950039   -0.0175820152    0.7319721370
C774       C    0.1815827755   -0.0285013347    0.7469689762
H775       H    0.3255530681   -0.0268535034    0.7588535062
H776       H    0.2137278974    0.0280848437    0.7080197176
H777       H    0.0610761486    0.0111514006    0.7066567150
H778       H    0.1729013194   -0.0437869465    0.7574905037
C759       C    0.4769307942    0.1086056196    0.7504715013
C760       C    0.5541659756    0.0949764025    0.7488192877
C761       C    0.6439441786    0.1035975963    0.7469808286
C762       C    0.6564872001    0.1258480072    0.7467945831
C763       C    0.5792520187    0.1394772243    0.7484467967
C764       C    0.4894738158    0.1308560305    0.7502852558
H765       H    0.4104716050    0.1022236970    0.7518324386
H766       H    0.7011162266    0.0935095710    0.7457578078
H767       H    0.7229463893    0.1322299299    0.7454336458
H768       H    0.4323017677    0.1409440558    0.7515082766
C749       C    0.3630653587    0.0449739334    0.8917117239
C750       C    0.2657105018    0.0450011945    0.8909360634
C751       C    0.2187479553    0.0450001575    0.8574764130
C752       C    0.2691402658    0.0449718593    0.8247924231
C753       C    0.3664951227    0.0449445982    0.8255680836
C754       C    0.4134576692    0.0449456352    0.8590277340
H755       H    0.3978298412    0.0449747010    0.9164805561
H756       H    0.1466847499    0.0450203360    0.8569012130
H757       H    0.2343757833    0.0449710917    0.8000235910
H758       H    0.4855208746    0.0449254567    0.8596029341
C739       C    0.6605526141    0.0389824961    0.5997297888
C740       C    0.5944819417    0.0392815494    0.5716764589
C741       C    0.4995195702    0.0396676875    0.5800992343
C742       C    0.4706278713    0.0397547724    0.6165753395
C743       C    0.5366985437    0.0394557191    0.6446286694
C744       C    0.6316609151    0.0390695809    0.6362058940
H745       H    0.7308494345    0.0386966535    0.5934947473
H746       H    0.4506112881    0.0398890579    0.5593345258
H747       H    0.4003310509    0.0400406149    0.6228103810
H748       H    0.6805691973    0.0388482105    0.6569706026
C729       C    0.8615605175    0.0437592309    0.3919037098
C730       C    0.7642263011    0.0440892652    0.3909524570
C731       C    0.7176565743    0.0441696399    0.3574087090
C732       C    0.7684210638    0.0439199804    0.3248162139
C733       C    0.8657552802    0.0435899461    0.3257674667
C734       C    0.9123250071    0.0435095713    0.3593112147
H735       H    0.8960342114    0.0436997327    0.4167347959
H736       H    0.6456086594    0.0444139327    0.3567035335
H737       H    0.7339473699    0.0439794786    0.2999851277
H738       H    0.9843729219    0.0432652786    0.3600163902
C719       C    0.4759331551    0.1259088153    0.4656063341
C720       C    0.5538497415    0.1393620881    0.4662155706
C721       C    0.6433479983    0.1305377421    0.4670833536
C722       C    0.6549296686    0.1082601233    0.4673419000
C723       C    0.5770130822    0.0948068505    0.4667326635
C724       C    0.4875148254    0.1036311965    0.4658648806
H725       H    0.4096811988    0.1324411233    0.4649639493
H726       H    0.7010244110    0.1404955276    0.4675343357
H727       H    0.7211816249    0.1017278153    0.4679842848
H728       H    0.4298384127    0.0936734111    0.4654138984
C709       C    0.3613400079    0.1841135527    0.3242022715
C710       C    0.2662006800    0.1888919697    0.3243870434
C711       C    0.2216389232    0.1940233389    0.3572056147
C712       C    0.2722164942    0.1943762910    0.3898394142
C713       C    0.3673558221    0.1895978739    0.3896546424
C714       C    0.4119175790    0.1844665048    0.3568360710
H715       H    0.3943272825    0.1803150067    0.2999080044
H716       H    0.1512157205    0.1975604686    0.3573434208
H717       H    0.2392292196    0.1981748370    0.4141336813
H718       H    0.4823407816    0.1809293750    0.3566982649
C699       C    0.6332530068    0.1966953783    0.5788566922
C700       C    0.5384472168    0.1951931804    0.5705242485
C701       C    0.4728819003    0.1935421311    0.5986241923
C702       C    0.5021223737    0.1933932798    0.6350565799
C703       C    0.5969281637    0.1948954777    0.6433890237
C704       C    0.6624934802    0.1965465270    0.6152890798
H705       H    0.6817883710    0.1979175836    0.5580554351
H706       H    0.4027049165    0.1924301572    0.5924574363
H707       H    0.4535870095    0.1921710744    0.6558578370
H708       H    0.7326704640    0.1976585009    0.6214558358
C689       C    0.2710850639    0.2544339521    0.4695933225
C690       C    0.2811903197    0.2331723794    0.4811354965
C691       C    0.2036093175    0.2216595523    0.4933330913
C692       C    0.1159230594    0.2314082980    0.4939885121
C693       C    0.1058178036    0.2526698707    0.4824463381
C694       C    0.1833988058    0.2641826977    0.4702487433
H695       H    0.3285151564    0.2629564345    0.4605639341
H696       H    0.2110867367    0.2059214475    0.5018769535
H697       H    0.0584929669    0.2228858156    0.5030179005
H698       H    0.1759213866    0.2799208026    0.4617048811
C679       C    0.6447804187    0.2448099183    0.9507384411
C680       C    0.6113013266    0.2536013577    0.9833340766
C681       C    0.6649810374    0.2523995483    1.0151357016
C682       C    0.7521398403    0.2424062995    1.0143416911
C683       C    0.7856189324    0.2336148601    0.9817460557
C684       C    0.7319392215    0.2348166695    0.9499444307
H685       H    0.6050434899    0.2456995694    0.9271969785
H686       H    0.6402016313    0.2589069025    1.0392638815
H687       H    0.7918767691    0.2415166484    1.0378831538
H688       H    0.7567186277    0.2283093153    0.9258162508
C669       C    0.4732852350    0.2931579956    1.1078189351
C670       C    0.5208904112    0.2963821733    1.0749530673
C671       C    0.6175819686    0.2990337714    1.0750605978
C672       C    0.6666683496    0.2984611918    1.1080339960
C673       C    0.6190631733    0.2952370141    1.1408998638
C674       C    0.5223716160    0.2925854160    1.1407923333
H675       H    0.4017083678    0.2911951243    1.1077393346
H676       H    0.6528222109    0.3014203802    1.0507334027
H677       H    0.7382452167    0.3004240631    1.1081135965
H678       H    0.4871313737    0.2901988072    1.1651195284
C659       C   -0.0055000114    0.5046083868    0.9917654492
C660       C    0.0086302483    0.4830345797    0.9828547612
C661       C   -0.0669898155    0.4701451264    0.9729751652
C662       C   -0.1567401389    0.4788294804    0.9720062573
C663       C   -0.1708703986    0.5004032875    0.9809169453
C664       C   -0.0952503348    0.5132927408    0.9907965412
H665       H    0.0504784774    0.5141499301    0.9990789163
H666       H   -0.0565330407    0.4541758631    0.9663791930
H667       H   -0.2127186277    0.4692879371    0.9646927901
H668       H   -0.1057071096    0.5292620041    0.9973925135
C649       C    0.3922188289    0.3833417258    0.9953004774
C650       C    0.3020240071    0.3914192103    0.9995564974
C651       C    0.2269395850    0.3773314570    1.0036042225
C652       C    0.2420499848    0.3551662192    1.0033959276
C653       C    0.3322448067    0.3470887347    0.9991399077
C654       C    0.4073292287    0.3611764880    0.9950921826
H655       H    0.4478008037    0.3937703224    0.9923041095
H656       H    0.1601753222    0.3833099365    1.0067546414
H657       H    0.1864680101    0.3447376227    1.0063922955
H658       H    0.4740934915    0.3551980085    0.9919417636
C639       C    0.0052416906    0.4405566197    1.0754124979
C640       C    0.1025353252    0.4407985878    1.0769185053
C641       C    0.1478557143    0.4408939104    1.1107244177
C642       C    0.0958824686    0.4407472649    1.1430243225
C643       C   -0.0014111660    0.4405052969    1.1415183150
C644       C   -0.0467315550    0.4404099743    1.1077124027
H645       H   -0.0283071688    0.4404860562    1.0503873420
H646       H    0.2198735511    0.4410730173    1.1118402289
H647       H    0.1294313281    0.4408178284    1.1680494784
H648       H   -0.1187493919    0.4402308674    1.1065965915
C629       C    0.0264057635    0.2291857088    0.7254639940
C630       C    0.0361521819    0.2511835399    0.7319441989
C631       C   -0.0425024482    0.2637753415    0.7388347271
C632       C   -0.1309034966    0.2543693120    0.7392450503
C633       C   -0.1406499150    0.2323714809    0.7327648454
C634       C   -0.0619952849    0.2197796793    0.7258743172
H635       H    0.0846306196    0.2198645051    0.7203632134
H636       H   -0.0352906732    0.2800584564    0.7436315698
H637       H   -0.1891283527    0.2636905158    0.7443458309
H638       H   -0.0692070599    0.2034965644    0.7210774745
C619       C    0.2306402462    0.2888752709    0.8494584156
C620       C    0.2964649632    0.2897358246    0.8213488873
C621       C    0.3912799866    0.2911865950    0.8296895026
C622       C    0.4202702931    0.2917768117    0.8661396462
C623       C    0.3544455760    0.2909162580    0.8942491745
C624       C    0.2596305526    0.2894654876    0.8859085591
H625       H    0.1604525015    0.2878013239    0.8432841938
H626       H    0.4400062088    0.2918236197    0.8088831937
H627       H    0.4904580377    0.2928507586    0.8723138679
H628       H    0.2109043304    0.2888284629    0.9067148681
C609       C    0.0265178911    0.2941167922    0.6411803808
C610       C    0.1238075586    0.2947186095    0.6399507360
C611       C    0.1696659091    0.2956424348    0.6062923096
C612       C    0.1182345920    0.2959644427    0.5738635280
C613       C    0.0209449245    0.2953626254    0.5750931728
C614       C   -0.0249134260    0.2944388001    0.6087515992
H615       H   -0.0074291995    0.2934329215    0.6660963588
H616       H    0.2416808265    0.2960879270    0.6053810657
H617       H    0.1521816826    0.2966483134    0.5489475500
H618       H   -0.0969283434    0.2939933079    0.6096628431
C599       C    0.2453962092    0.4483933511    0.8308965221
C600       C    0.3402970350    0.4463863182    0.8230527681
C601       C    0.4047692078    0.4444809405    0.8514922105
C602       C    0.3743405549    0.4445825957    0.8877754069
C603       C    0.2794397291    0.4465896286    0.8956191609
C604       C    0.2149675562    0.4484950064    0.8671797185
H605       H    0.1976700552    0.4498038256    0.8098439478
H606       H    0.4750165021    0.4429952815    0.8456871917
H607       H    0.4220667088    0.4431721213    0.9088279812
H608       H    0.1447202619    0.4499806653    0.8729847373
C589       C    0.4013135118    0.3767730219    0.7322631432
C590       C    0.3298248650    0.3898652632    0.7190030803
C591       C    0.2485017658    0.3806383500    0.7050527254
C592       C    0.2386673134    0.3583191956    0.7043624335
C593       C    0.3101559602    0.3452269543    0.7176224964
C594       C    0.3914790595    0.3544538675    0.7315728512
H595       H    0.4615137282    0.3836033342    0.7425900292
H596       H    0.1955835498    0.3903288885    0.6952372325
H597       H    0.1784670971    0.3514888833    0.6940355474
H598       H    0.4443972754    0.3447633290    0.7413883442
C579       C    0.6095417346    0.4404208980    0.6437010767
C580       C    0.5121764784    0.4406235671    0.6432853515
C581       C    0.4644072938    0.4405510824    0.6100020975
C582       C    0.5140033655    0.4402759284    0.5771345687
C583       C    0.6113686218    0.4400732593    0.5775502939
C584       C    0.6591378063    0.4401457440    0.6108335479
H585       H    0.6449033388    0.4404745555    0.6683393296
H586       H    0.3923363654    0.4407010951    0.6096933259
H587       H    0.4786417613    0.4402222709    0.5524963158
H588       H    0.7312087347    0.4399957313    0.6111423195
C569       C    0.6720980596    0.4718211411    0.7398829206
C570       C    0.5919094520    0.4840399591    0.7338128099
C571       C    0.5991908164    0.5061189240    0.7276414752
C572       C    0.6866607884    0.5159790709    0.7275402511
C573       C    0.7668493960    0.5037602530    0.7336103617
C574       C    0.7595680315    0.4816812881    0.7397816965
H575       H    0.6667079586    0.4554769723    0.7444513112
H576       H    0.5398357246    0.5151639483    0.7231482056
H577       H    0.6920508894    0.5323232398    0.7229718604
H578       H    0.8189231234    0.4726362638    0.7442749661
C559       C   -0.0015030039    0.7285383424    0.2332351387
C560       C    0.0101844960    0.7508111776    0.2326596743
C561       C   -0.0675236088    0.7642925595    0.2344020016
C562       C   -0.1569192134    0.7555011061    0.2367197933
C563       C   -0.1686067133    0.7332282708    0.2372952577
C564       C   -0.0908986085    0.7197468890    0.2355529304
H565       H    0.0560211775    0.7185586182    0.2319453640
H566       H   -0.0588750222    0.7807792596    0.2339761001
H567       H   -0.2144433948    0.7654808303    0.2380095680
H568       H   -0.0995471951    0.7032601889    0.2359788320
C549       C    0.0087895361    0.7948529149    0.1391955829
C550       C    0.1059538273    0.7934670831    0.1383368691
C551       C    0.1526017656    0.7926446533    0.1048383087
C552       C    0.1020854126    0.7932080553    0.0721984621
C553       C    0.0049211214    0.7945938871    0.0730571759
C554       C   -0.0417268169    0.7954163169    0.1065557364
H555       H   -0.0257420546    0.7954617265    0.1639932186
H556       H    0.2245239049    0.7916188395    0.1042016316
H557       H    0.1366170033    0.7925992437    0.0474008265
H558       H   -0.1136489562    0.7964421306    0.1071924134
C539       C    0.6118872130    1.0038910491    0.2265107059
C540       C    0.6026477221    0.9817345753    0.2313278204
C541       C    0.6815993656    0.9690695158    0.2372371887
C542       C    0.7697905000    0.9785609301    0.2383294427
C543       C    0.7790299908    1.0007174039    0.2335123283
C544       C    0.7000783473    1.0133824634    0.2276029599
H545       H    0.5534424898    1.0132664827    0.2221362384
H546       H    0.6747628259    0.9526689718    0.2408029867
H547       H    0.8282352231    0.9691854965    0.2427039102
H548       H    0.7069148870    1.0297830074    0.2240371619
C529       C    0.4022819392    0.8744165671    0.2143368036
C530       C    0.3253875848    0.8881810106    0.2146165056
C531       C    0.2352034899    0.8797187646    0.2145448859
C532       C    0.2219137494    0.8574920751    0.2141935642
C533       C    0.2988081038    0.8437276316    0.2139138623
C534       C    0.3889921987    0.8521898776    0.2139854820
H535       H    0.4690415939    0.8806808271    0.2143898208
H536       H    0.1782837080    0.8899068890    0.2147519180
H537       H    0.1551540948    0.8512278151    0.2141405471
H538       H    0.4459119806    0.8420017532    0.2137784499
C519       C    0.5203659698    0.9381905197    0.0727889478
C520       C    0.6173473110    0.9401157385    0.0738087293
C521       C    0.6633430073    0.9417039503    0.1073656211
C522       C    0.6123573624    0.9413669434    0.1399027314
C523       C    0.5153760211    0.9394417245    0.1388829499
C524       C    0.4693803248    0.9378535127    0.1053260581
H525       H    0.4863172076    0.9370148304    0.0479481318
H526       H    0.7351297071    0.9431290407    0.1081215217
H527       H    0.6464061245    0.9425426326    0.1647435474
H528       H    0.3975936251    0.9364284223    0.1045701574
C509       C    0.2508606240    0.7870756667    0.3839356169
C510       C    0.3459395853    0.7893641799    0.3912029934
C511       C    0.4093075095    0.7911755496    0.3623656534
C512       C    0.3775964725    0.7906984062    0.3262609368
C513       C    0.2825175113    0.7884098930    0.3189935603
C514       C    0.2191495870    0.7865985232    0.3478309004
H515       H    0.2039519008    0.7857347826    0.4052827388
H516       H    0.4796866242    0.7928695563    0.3677440270
H517       H    0.4245051957    0.7920392902    0.3049138150
H518       H    0.1487704723    0.7849045166    0.3424525267
C499       C    0.4999673059    0.7794635928    0.5990430126
C500       C    0.5224772764    0.7946776572    0.5723920132
C501       C    0.5949799433    0.8092197271    0.5784987533
C502       C    0.6449726396    0.8085477326    0.6112564929
C503       C    0.6224626691    0.7933336682    0.6379074923
C504       C    0.5499600023    0.7787915983    0.6318007522
H505       H    0.4462965006    0.7686986839    0.5945224388
H506       H    0.6116440380    0.8204815837    0.5587719714
H507       H    0.6986434450    0.8193126415    0.6157770667
H508       H    0.5332959076    0.7675297417    0.6515275341
C489       C    0.6156043186    0.7297132675    0.4802749779
C490       C    0.6077360997    0.7520769393    0.4804991018
C491       C    0.6878541019    0.7648297840    0.4804789751
C492       C    0.7758403231    0.7552189570    0.4802347244
C493       C    0.7837085419    0.7328552853    0.4800106005
C494       C    0.7035905397    0.7201024405    0.4800307272
H495       H    0.5562961870    0.7202728500    0.4802898769
H496       H    0.6820326098    0.7813836979    0.4806448702
H497       H    0.8351484546    0.7646593745    0.4802198254
H498       H    0.7094120319    0.7035485266    0.4798648321
C479       C    0.1181436013    0.9373385175    0.6407711441
C480       C    0.0212649525    0.9395630552    0.6400745668
C481       C   -0.0250369365    0.9420479670    0.6067408125
C482       C    0.0255398233    0.9423083409    0.5741036354
C483       C    0.1224184722    0.9400838031    0.5748002127
C484       C    0.1687203612    0.9375988914    0.6081339670
H485       H    0.1524190257    0.9354990374    0.6654467804
H486       H   -0.0967476335    0.9436946405    0.6062241535
H487       H   -0.0087356010    0.9441478210    0.5494279991
H488       H    0.2404310581    0.9359522178    0.6086506259
C469       C    0.0217919707    1.0052427800    0.4789646650
C470       C    0.0313618646    0.9830655359    0.4833870946
C471       C   -0.0476930946    0.9701805969    0.4874159335
C472       C   -0.1363179477    0.9794729020    0.4870223426
C473       C   -0.1458878416    1.0016501461    0.4825999130
C474       C   -0.0668328824    1.0145350851    0.4785710742
H475       H    0.0803131743    1.0147809816    0.4759822778
H476       H   -0.0406119949    0.9537646719    0.4906895276
H477       H   -0.1948391513    0.9699347004    0.4900047298
H478       H   -0.0739139821    1.0309510102    0.4752974800
C459       C    0.3847167153    0.9456911657    0.3845542318
C460       C    0.2899634995    0.9453543271    0.3933400476
C461       C    0.2232292828    0.9446731140    0.3655495772
C462       C    0.2512482821    0.9443287396    0.3289732911
C463       C    0.3460014979    0.9446655782    0.3201874754
C464       C    0.4127357145    0.9453467912    0.3479779458
H465       H    0.4341173692    0.9461954403    0.4051263982
H466       H    0.1530911773    0.9444237657    0.3720519273
H467       H    0.2018476282    0.9438244650    0.3084011248
H468       H    0.4828738201    0.9455961395    0.3414755957
C449       C    0.2345902466    0.8765540269    0.5052359381
C450       C    0.3097096283    0.8901177814    0.4976460220
C451       C    0.3970436390    0.8814237191    0.4895062677
C452       C    0.4092582681    0.8591659023    0.4889564295
C453       C    0.3341388864    0.8456021479    0.4965463456
C454       C    0.2468048757    0.8542962102    0.5046860999
H455       H    0.1699403945    0.8829898913    0.5112614705
H456       H    0.4526495023    0.8914632867    0.4838879813
H457       H    0.4739081202    0.8527300380    0.4829308971
H458       H    0.1911990125    0.8442566425    0.5103043864
loop_
_geom_bond_atom_site_label_1
_geom_bond_atom_site_label_2
_geom_bond_distance
_geom_bond_site_symmetry_2
_ccdc_geom_bond_type
O309       C319 1.250       .   A
O309      Cu317 1.951       .   S
O302       C305 1.250       .   A
O302      Cu304 1.951       .   S
C892       C893 1.540       .   A
C893       C252 1.604       .   S
C893       C894 1.540       .   A
O300       C307 1.251       .   A
O300      Cu304 1.951       .   S
O301       C306 1.250       .   A
O301      Cu304 1.951       .   S
C889       C894 1.540       .   A
C894       H898 1.140       .   S
C511       H516 1.140       .   S
C512       H517 1.140       .   S
C899       C904 1.540       .   A
C899       H905 1.140       .   S
C899       C900 1.540       .   A
C573       C294 1.501       .   S
C573       C574 1.540       .   A
C572       C573 1.540       .   A
C514       H518 1.140       .   S
O412      Cu416 1.951       .   S
O413      Cu416 1.951       .   S
Cu415     Cu416 2.630       .   S
O411      Cu416 1.951       .   S
O414      Cu416 1.951       .   S
O48         C55 1.251       .   A
O48        Cu52 1.951       .   S
O407      Cu415 1.951       .   S
O409      Cu415 1.951       .   S
O408      Cu415 1.951       .   S
O410      Cu415 1.951       .   S
C1040     C1041 1.540       .   A
C1041     C1042 1.540       .   A
C1041     H1046 1.140       .   S
C694       H698 1.140       .   S
O29         C39 1.250       .   A
O29        Cu37 1.951       .   S
C689       H695 1.140       .   S
C692       H697 1.140       .   S
C691       H696 1.140       .   S
O22        Cu24 1.951       .   S
O22         C25 1.250       .   A
O20        Cu24 1.951       .   S
O20         C27 1.251       .   A
O21        Cu24 1.951       .   S
O21         C26 1.250       .   A
C562       H567 1.140       .   S
C562       C563 1.540       .   A
C561       C562 1.540       .   A
C892       H897 1.140       .   S
C891       C892 1.540       .   A
O246       C249 1.250       .   A
C249       C503 1.191       .   S
O239       C249 1.250       .   A
C561       H566 1.140       .   S
C560       C561 1.540       .   A
O49        Cu52 1.951       .   S
O50        Cu52 1.951       .   S
Cu51       Cu52 2.630       .   S
O47        Cu52 1.951       .   S
O43        Cu51 1.951       .   S
O44        Cu51 1.951       .   S
O45        Cu51 1.951       .   S
O46        Cu51 1.951       .   S
O239      Cu247 1.951       .   S
C881       H886 1.140       .   S
C880       C881 1.540       .   A
C881       C882 1.540       .   A
C569       C574 1.540       .   A
C569       C570 1.540       .   A
C569       H575 1.140       .   S
O232      Cu234 1.951       .   S
O232       C235 1.250       .   A
C890       C238 1.604       .   S
C890       C891 1.540       .   A
C889       C890 1.540       .   A
O230      Cu234 1.951       .   S
O230       C237 1.251       .   A
O231      Cu234 1.951       .   S
O231       C236 1.250       .   A
C979       H985 1.140       .   S
C1044     H1048 1.140       .   S
C932       H937 1.140       .   S
C962       H967 1.140       .   S
C962       C963 1.540       .   A
C961       C962 1.540       .   A
C963       C964 1.540       .   A
C308       C963 1.539   1_455   S
C1069     C1070 1.540       .   A
C1069     H1075 1.140       .   S
C1069     C1074 1.540       .   A
C961       H966 1.140       .   S
C960       C961 1.540       .   A
C829       H835 1.140       .   S
C832       H837 1.140       .   S
C1064     H1068 1.140       .   S
C1059     C1064 1.540       .   A
C1063     C1064 1.540       .   A
C1063      C403 1.622       .   S
C1062     C1063 1.540       .   A
O144      Cu149 1.951       .   S
Cu149     Cu150 2.630       .   S
O141      Cu149 1.951       .   S
O142      Cu149 1.951       .   S
O143      Cu149 1.951       .   S
C1061     C1062 1.540       .   A
C1061     H1066 1.140       .   S
C1060     C1061 1.540       .   A
C1060      C431 1.622   1_456   S
C1059     C1060 1.540       .   A
O399       C404 1.250       .   A
O399      Cu402 1.951       .   S
O398       C405 1.251       .   A
O398      Cu402 1.951       .   S
O428       C431 1.250       .   A
O428      Cu430 1.951       .   S
O395       C405 1.250       .   A
O395      Cu401 1.951       .   S
O394      Cu401 1.951       .   S
O394       C404 1.250       .   A
O397       C406 1.250       .   A
O397      Cu402 1.951       .   S
O396      Cu401 1.951       .   S
O396       C406 1.250       .   A
O423      Cu429 1.951       .   S
O423       C433 1.250       .   A
O422      Cu429 1.951       .   S
O422       C432 1.250       .   A
O393       C403 1.250       .   A
O393      Cu401 1.951       .   S
C802       H807 1.140       .   S
C801       C802 1.540       .   A
C802       C803 1.540       .   A
C759       C760 1.540       .   A
C760       C761 1.540       .   A
C154       C760 1.540       .   S
C812       H817 1.140       .   S
C461       H466 1.140       .   S
C462       H467 1.140       .   S
C761       C762 1.540       .   A
C761       H766 1.140       .   S
C889       H895 1.140       .   S
C464       H468 1.140       .   S
C762       H767 1.140       .   S
C762       C763 1.540       .   A
O59         C69 1.250       .   A
O59        Cu65 1.951       .   S
O58         C68 1.250       .   A
O58        Cu65 1.951       .   S
C939       H945 1.140       .   S
C942       H947 1.140       .   S
C941       H946 1.140       .   S
C944       H948 1.140       .   S
O50         C53 1.250       .   A
O57         C67 1.250       .   A
O57        Cu65 1.951       .   S
C542       H547 1.140       .   S
C479       C480 1.540       .   A
C479       C484 1.540       .   A
C479       H485 1.140       .   S
O283      Cu289 1.951       .   S
O282      Cu289 1.951       .   S
O281      Cu289 1.951       .   S
Cu289     Cu290 2.630       .   S
O284      Cu289 1.951       .   S
O162      Cu164 1.951       .   S
O162       C165 1.250       .   A
C664       H668 1.140       .   S
C659       C664 1.540       .   A
C663       C664 1.540       .   A
O160       C167 1.251       .   A
O160      Cu164 1.951       .   S
O161       C166 1.250       .   A
O161      Cu164 1.951       .   S
C852       H857 1.140       .   S
C660        C97 1.676       .   S
C660       C661 1.540       .   A
C659       C660 1.540       .   A
C663       C181 1.676   1_455   S
C662       C663 1.540       .   A
C769       C770 1.540       .   A
C769       H775 1.140       .   S
C769       C774 1.540       .   A
C743       C744 1.540       .   A
C739       C744 1.540       .   A
C744       H748 1.140       .   S
O169       C179 1.250       .   A
O169      Cu177 1.951       .   S
C250       C920 1.580       .   S
C920       C921 1.540       .   A
C919       C920 1.540       .   A
C152       C743 1.611       .   S
C742       C743 1.540       .   A
C740       C138 1.611       .   S
C739       C740 1.540       .   A
C740       C741 1.540       .   A
C741       H746 1.140       .   S
C741       C742 1.540       .   A
C481       H486 1.140       .   S
C754       H758 1.140       .   S
C484       H488 1.140       .   S
C483       C484 1.540       .   A
C851       H856 1.140       .   S
C690       C691 1.540       .   A
C691       C692 1.540       .   A
O260       C263 1.250       .   A
O260      Cu262 1.951       .   S
C759       H765 1.140       .   S
O30         C40 1.250       .   A
O35         C40 1.250       .   A
C40        C523 1.173       .   S
O31         C41 1.250       .   A
C41        C530 1.610       .   S
O34         C41 1.251       .   A
O33         C42 1.250       .   A
O32         C42 1.250       .   A
C42        C540 1.568       .   S
C641       H646 1.140       .   S
C759       C764 1.540       .   A
C639       H645 1.140       .   S
C803       C207 1.631   1_556   S
C803       C804 1.540       .   A
C764       H768 1.140       .   S
O75        Cu80 1.951       .   S
O77        Cu80 1.951       .   S
O76        Cu80 1.951       .   S
Cu79       Cu80 2.630       .   S
O78        Cu80 1.951       .   S
C592       C593 1.540       .   A
C592       H597 1.140       .   S
C591       C592 1.540       .   A
C591       H596 1.140       .   S
C590       C591 1.540       .   A
C589       C590 1.540       .   A
C70        C590 1.574       .   S
O211      Cu219 1.951       .   S
O212      Cu219 1.951       .   S
O213      Cu219 1.951       .   S
O214      Cu219 1.951       .   S
Cu219     Cu220 2.630       .   S
C593       C594 1.540       .   A
C589       C594 1.540       .   A
C594       H598 1.140       .   S
C599       C600 1.540       .   A
C599       H605 1.140       .   S
C599       C604 1.540       .   A
O351      Cu359 1.951       .   S
O353      Cu359 1.951       .   S
O352      Cu359 1.951       .   S
Cu359     Cu360 2.630       .   S
O354      Cu359 1.951       .   S
O344      Cu346 1.951       .   S
O344       C347 1.250       .   A
C1079     C1084 1.540       .   A
C1084     H1088 1.140       .   S
C1083     C1084 1.540       .   A
C1081     H1086 1.140       .   S
C1080     C1081 1.540       .   A
C1081     C1082 1.540       .   A
C1079     C1080 1.540       .   A
C433      C1080 1.559       .   S
C1083      C448 1.559   1_655   S
C1082     C1083 1.540       .   A
C1082     H1087 1.140       .   S
O342      Cu346 1.951       .   S
O342       C349 1.251       .   A
C502       H507 1.140       .   S
O343      Cu346 1.951       .   S
O343       C348 1.250       .   A
C699       C700 1.540       .   A
C699       H705 1.140       .   S
C699       C704 1.540       .   A
C348       C583 1.160       .   S
O338       C348 1.250       .   A
C349      C1010 1.553       .   S
O339       C349 1.250       .   A
C609       C614 1.540       .   A
C613       C614 1.540       .   A
C614       H618 1.140       .   S
C689       C690 1.540       .   A
C690       C125 1.580       .   S
C900       C236 1.613       .   S
C900       C901 1.540       .   A
C692       C693 1.540       .   A
C693       C694 1.540       .   A
C693       C363 1.580   1_455   S
C689       C694 1.540       .   A
O337       C347 1.250       .   A
C347      C1000 1.580       .   S
C811       H816 1.140       .   S
C492       H497 1.140       .   S
C491       H496 1.140       .   S
C489       H495 1.140       .   S
C799       H805 1.140       .   S
C750       C751 1.540       .   A
C404       C750 1.179       .   S
C749       C750 1.540       .   A
C494       H498 1.140       .   S
C773       C774 1.540       .   A
C774       H778 1.140       .   S
C751       H756 1.140       .   S
C751       C752 1.540       .   A
C1004     H1008 1.140       .   S
C1003     C1004 1.540       .   A
C999      C1004 1.540       .   A
C1032     H1037 1.140       .   S
C1031     H1036 1.140       .   S
C809       H815 1.140       .   S
C519       C524 1.540       .   A
C524       H528 1.140       .   S
C523       C524 1.540       .   A
C752       C753 1.540       .   A
C752       H757 1.140       .   S
C522       H527 1.140       .   S
C522       C523 1.540       .   A
C521       C522 1.540       .   A
C1031     C1032 1.540       .   A
C1032     C1033 1.540       .   A
C519       C520 1.540       .   A
C264       C520 1.173   1_556   S
C520       C521 1.540       .   A
C563       C564 1.540       .   A
C563       C223 1.688   1_455   S
O385       C390 1.250       .   A
O385      Cu388 1.951       .   S
C1001     H1006 1.140       .   S
C1000     C1001 1.540       .   A
C1001     C1002 1.540       .   A
C789       H795 1.140       .   S
C791       H796 1.140       .   S
O270       C280 1.250       .   A
O271       C280 1.250       .   A
C933       C280 1.538       .   S
C629       C634 1.540       .   A
C629       H635 1.140       .   S
C629       C630 1.540       .   A
C449       C450 1.540       .   A
C449       H455 1.140       .   S
C449       C454 1.540       .   A
O438       C448 1.250       .   A
O439       C448 1.250       .   A
O435       C445 1.250       .   A
O442       C445 1.250       .   A
C445       C710 1.166       .   S
O440       C447 1.251       .   A
C1043      C447 1.604       .   S
O437       C447 1.250       .   A
O7         Cu10 1.951       .   S
O6         Cu10 1.951       .   S
O5         Cu10 1.951       .   S
Cu9        Cu10 2.630       .   S
O8         Cu10 1.951       .   S
O102       C112 1.250       .   A
O103       C112 1.250       .   A
C112       C653 1.571       .   S
O101       C111 1.250       .   A
C111       C680 1.582       .   S
O104       C111 1.251       .   A
O100       C110 1.250       .   A
C110       C623 1.618       .   S
O105       C110 1.250       .   A
O103      Cu108 1.951       .   S
O104      Cu108 1.951       .   S
O105      Cu108 1.951       .   S
O106      Cu108 1.951       .   S
Cu107     Cu108 2.630       .   S
C840       C841 1.540       .   A
C840       C194 1.665       .   S
C839       C840 1.540       .   A
C842       C843 1.540       .   A
C843       C844 1.540       .   A
C222       C843 1.665   1_554   S
C841       C842 1.540       .   A
C842       H847 1.140       .   S
O88        Cu93 1.951       .   S
O88         C98 1.250       .   A
O89         C98 1.250       .   A
O89        Cu94 1.951       .   S
C504       H508 1.140       .   S
C849       C854 1.540       .   A
C849       H855 1.140       .   S
C849       C850 1.540       .   A
O85        Cu93 1.951       .   S
O85         C95 1.250       .   A
O86        Cu93 1.951       .   S
O86         C96 1.250       .   A
O87        Cu93 1.951       .   S
O87         C97 1.250       .   A
C969       H975 1.140       .   S
C971       H976 1.140       .   S
O100      Cu107 1.951       .   S
O101      Cu107 1.951       .   S
O102      Cu107 1.951       .   S
O99       Cu107 1.951       .   S
O298      Cu303 1.951       .   S
O298       C308 1.250       .   A
O299       C308 1.250       .   A
O299      Cu304 1.951       .   S
C609       C610 1.540       .   A
C609       H615 1.140       .   S
O295      Cu303 1.951       .   S
O295       C305 1.250       .   A
O296       C306 1.250       .   A
O296      Cu303 1.951       .   S
O297      Cu303 1.951       .   S
O297       C307 1.250       .   A
O17        Cu23 1.951       .   S
O17         C27 1.250       .   A
O16         C26 1.250       .   A
O16        Cu23 1.951       .   S
O15        Cu23 1.951       .   S
O15         C25 1.250       .   A
C981       H986 1.140       .   S
C544       H548 1.140       .   S
C539       H545 1.140       .   S
C872       H877 1.140       .   S
C541       H546 1.140       .   S
C984       H988 1.140       .   S
O19        Cu24 1.951       .   S
O19         C28 1.250       .   A
O18         C28 1.250       .   A
O18        Cu23 1.951       .   S
O267       C277 1.250       .   A
O267      Cu275 1.951       .   S
O226       C236 1.250       .   A
C237       C773 1.561   1_665   S
O227       C237 1.250       .   A
O225       C235 1.250       .   A
C235       C480 1.170   1_655   S
C830       C195 1.485       .   S
C830       C831 1.540       .   A
C829       C830 1.540       .   A
O229       C238 1.250       .   A
O228       C238 1.250       .   A
O269       C279 1.250       .   A
O269      Cu275 1.951       .   S
O268       C278 1.250       .   A
O268      Cu275 1.951       .   S
O340      Cu345 1.951       .   S
O340       C350 1.250       .   A
O341      Cu346 1.951       .   S
O341       C350 1.250       .   A
C1029     C1034 1.540       .   A
C1034     H1038 1.140       .   S
C1033     C1034 1.540       .   A
O127       C137 1.250       .   A
O127      Cu135 1.951       .   S
C801       H806 1.140       .   S
O441      Cu444 1.951       .   S
O440      Cu444 1.951       .   S
Cu443     Cu444 2.630       .   S
O442      Cu444 1.951       .   S
O439      Cu444 1.951       .   S
C1030      C377 1.547       .   S
C1029     C1030 1.540       .   A
C1030     C1031 1.540       .   A
O120      Cu122 1.951       .   S
O120       C123 1.250       .   A
C1033      C392 1.547       .   S
C619       C620 1.540       .   A
C619       C624 1.540       .   A
C619       H625 1.140       .   S
C804       H808 1.140       .   S
C1039     C1040 1.540       .   A
C1039     C1044 1.540       .   A
C1039     H1045 1.140       .   S
O128      Cu135 1.951       .   S
O128       C138 1.250       .   A
O129       C139 1.250       .   A
O129      Cu135 1.951       .   S
C834       H838 1.140       .   S
C829       C834 1.540       .   A
C833       C834 1.540       .   A
C909       C914 1.540       .   A
C909       H915 1.140       .   S
C909       C910 1.540       .   A
C939       C940 1.540       .   A
C939       C944 1.540       .   A
O175      Cu178 1.951       .   S
O174      Cu178 1.951       .   S
Cu177     Cu178 2.630       .   S
O176      Cu178 1.951       .   S
O173      Cu178 1.951       .   S
C831       C832 1.540       .   A
C832       C833 1.540       .   A
C833       C279 1.485   1_455   S
C620       C621 1.540       .   A
C621       H626 1.140       .   S
C621       C622 1.540       .   A
C929       C934 1.540       .   A
C934       H938 1.140       .   S
C933       C934 1.540       .   A
O171      Cu177 1.951       .   S
O170      Cu177 1.951       .   S
O172      Cu177 1.951       .   S
C622       C623 1.540       .   A
C622       H627 1.140       .   S
C931       H936 1.140       .   S
C930       C931 1.540       .   A
C931       C932 1.540       .   A
C930       C265 1.538       .   S
C929       C930 1.540       .   A
C932       C933 1.540       .   A
C959       C960 1.540       .   A
C960       C293 1.539       .   S
C452       C453 1.540       .   A
C28        C453 1.558       .   S
C453       C454 1.540       .   A
C662       H667 1.140       .   S
C519       H525 1.140       .   S
C839       C844 1.540       .   A
C839       H845 1.140       .   S
O190       C193 1.250       .   A
O190      Cu192 1.951       .   S
O197       C207 1.250       .   A
O197      Cu205 1.951       .   S
C871       H876 1.140       .   S
O199       C209 1.250       .   A
O199      Cu205 1.951       .   S
O198      Cu205 1.951       .   S
O198       C208 1.250       .   A
C724       H728 1.140       .   S
C831       H836 1.140       .   S
C719       H725 1.140       .   S
C722       H727 1.140       .   S
C1062     H1067 1.140       .   S
C631       H636 1.140       .   S
C631       C632 1.540       .   A
C630       C631 1.540       .   A
O315      Cu318 1.951       .   S
O314      Cu318 1.951       .   S
O316      Cu318 1.951       .   S
Cu317     Cu318 2.630       .   S
O313      Cu318 1.951       .   S
C810       C811 1.540       .   A
C809       C810 1.540       .   A
C810       C182 1.537       .   S
C710       C711 1.540       .   A
C711       H716 1.140       .   S
C711       C712 1.540       .   A
C709       C710 1.540       .   A
C713       C714 1.540       .   A
C123       C713 1.166       .   S
C712       C713 1.540       .   A
C712       H717 1.140       .   S
C489       C494 1.540       .   A
C493       C494 1.540       .   A
C719       C724 1.540       .   A
C719       C720 1.540       .   A
C492       C493 1.540       .   A
C493       C336 1.587       .   S
O311      Cu317 1.951       .   S
O310      Cu317 1.951       .   S
O312      Cu317 1.951       .   S
C491       C492 1.540       .   A
C490       C491 1.540       .   A
C509       C510 1.540       .   A
C510       C511 1.540       .   A
C510        C26 1.641       .   S
C659       H665 1.140       .   S
C306       C973 1.639       .   S
C307       C913 1.597       .   S
C305       C820 1.164       .   S
C98        C650 1.571       .   S
C650       C651 1.540       .   A
C649       C650 1.540       .   A
C651       C652 1.540       .   A
C651       H656 1.140       .   S
C652       H657 1.140       .   S
C652       C653 1.540       .   A
C653       C654 1.540       .   A
C809       C814 1.540       .   A
C513       C514 1.540       .   A
C509       C514 1.540       .   A
C612       H617 1.140       .   S
C611       H616 1.140       .   S
C1029     H1035 1.140       .   S
C772       C773 1.540       .   A
C771       C772 1.540       .   A
C772       H777 1.140       .   S
C589       H595 1.140       .   S
O427       C432 1.250       .   A
O427      Cu430 1.951       .   S
O36         C39 1.250       .   A
C39        C463 1.628       .   S
O218      Cu220 1.951       .   S
O215      Cu220 1.951       .   S
O216      Cu220 1.951       .   S
O217      Cu220 1.951       .   S
O426       C433 1.251       .   A
O426      Cu430 1.951       .   S
C852       C853 1.540       .   A
C851       C852 1.540       .   A
O425       C434 1.250       .   A
O425      Cu430 1.951       .   S
C320       C853 1.223       .   S
C853       C854 1.540       .   A
O146       C153 1.251       .   A
C153       C770 1.561       .   S
O143       C153 1.250       .   A
O147       C152 1.250       .   A
O142       C152 1.250       .   A
C151       C753 1.179       .   S
O148       C151 1.250       .   A
O141       C151 1.250       .   A
O424      Cu429 1.951       .   S
O424       C434 1.250       .   A
C405      C1050 1.548       .   S
O144       C154 1.250       .   A
O145       C154 1.250       .   A
C800       C801 1.540       .   A
C850       C851 1.540       .   A
C800       C180 1.631       .   S
C799       C800 1.540       .   A
C1040      C391 1.604       .   S
O381       C391 1.250       .   A
O384       C391 1.251       .   A
C390      C1023 1.614       .   S
O380       C390 1.250       .   A
O382       C392 1.250       .   A
O383       C392 1.250       .   A
O421       C431 1.250       .   A
O421      Cu429 1.951       .   S
C921       H926 1.140       .   S
C869       H875 1.140       .   S
C82        C620 1.618       .   S
C951       H956 1.140       .   S
C951       C952 1.540       .   A
C950       C951 1.540       .   A
C901       H906 1.140       .   S
O258      Cu262 1.951       .   S
O258       C265 1.251       .   A
O259      Cu262 1.951       .   S
O259       C264 1.250       .   A
O254      Cu261 1.951       .   S
O254       C264 1.250       .   A
O255      Cu261 1.951       .   S
O255       C265 1.250       .   A
O256      Cu261 1.951       .   S
O256       C266 1.250       .   A
O257      Cu262 1.951       .   S
O257       C266 1.250       .   A
O253      Cu261 1.951       .   S
O253       C263 1.250       .   A
C499       H505 1.140       .   S
C991       H996 1.140       .   S
C991       C992 1.540       .   A
C990       C991 1.540       .   A
C919       H925 1.140       .   S
C874       H878 1.140       .   S
C322       C990 1.664       .   S
C989       C990 1.540       .   A
C623       C624 1.540       .   A
C949       C950 1.540       .   A
C291       C950 1.603       .   S
C277       C553 1.170   1_656   S
O274       C277 1.250       .   A
C1079     H1085 1.140       .   S
O441       C446 1.250       .   A
Cu429     Cu430 2.630       .   S
C459       H465 1.140       .   S
O273       C278 1.250       .   A
C923       C278 1.580       .   S
O272       C279 1.251       .   A
O229      Cu234 1.951       .   S
O228      Cu233 1.951       .   S
O62        Cu66 1.951       .   S
O63        Cu66 1.951       .   S
O61        Cu66 1.951       .   S
O64        Cu66 1.951       .   S
Cu65       Cu66 2.630       .   S
C471       H476 1.140       .   S
C470       C471 1.540       .   A
C471       C472 1.540       .   A
C472       H477 1.140       .   S
C472       C473 1.540       .   A
O60        Cu65 1.951       .   S
C574       H578 1.140       .   S
O225      Cu233 1.951       .   S
C570       C571 1.540       .   A
C570        C69 1.501       .   S
O227      Cu233 1.951       .   S
O226      Cu233 1.951       .   S
C970       C971 1.540       .   A
C971       C972 1.540       .   A
C972       C973 1.540       .   A
C973       C974 1.540       .   A
C972       H977 1.140       .   S
O130      Cu135 1.951       .   S
Cu135     Cu136 2.630       .   S
C974       H978 1.140       .   S
C969       C974 1.540       .   A
O131      Cu136 1.951       .   S
O133      Cu136 1.951       .   S
O132      Cu136 1.951       .   S
O134      Cu136 1.951       .   S
C1070     C1071 1.540       .   A
C417      C1070 1.609       .   S
C1071     H1076 1.140       .   S
C1071     C1072 1.540       .   A
C1072     H1077 1.140       .   S
C1072     C1073 1.540       .   A
C1073      C446 1.609   1_656   S
C1073     C1074 1.540       .   A
C1074     H1078 1.140       .   S
C841       H846 1.140       .   S
C924       H928 1.140       .   S
C879       C884 1.540       .   A
C879       C880 1.540       .   A
C879       H885 1.140       .   S
O412       C419 1.251       .   A
O413       C418 1.250       .   A
O410       C420 1.250       .   A
O411       C420 1.250       .   A
C869       C874 1.540       .   A
C873       C874 1.540       .   A
O414       C417 1.250       .   A
C770       C771 1.540       .   A
C771       H776 1.140       .   S
C571       H576 1.140       .   S
C572       H577 1.140       .   S
C474       H478 1.140       .   S
C469       H475 1.140       .   S
O315       C320 1.250       .   A
O49         C54 1.250       .   A
O316       C319 1.250       .   A
O311       C321 1.250       .   A
O310       C320 1.250       .   A
O313       C322 1.250       .   A
O312       C322 1.250       .   A
C624       H628 1.140       .   S
O43         C53 1.250       .   A
O44         C54 1.250       .   A
O45         C55 1.250       .   A
O46         C56 1.250       .   A
O47         C56 1.250       .   A
C794       H798 1.140       .   S
C469       C470 1.540       .   A
C14        C470 1.607       .   S
C904       H908 1.140       .   S
C903       C904 1.540       .   A
C610       C611 1.540       .   A
C611       C612 1.540       .   A
C612       C613 1.540       .   A
C361       C613 1.207   1_655   S
C1009     H1015 1.140       .   S
C1009     C1014 1.540       .   A
C1009     C1010 1.540       .   A
C901       C902 1.540       .   A
C902       H907 1.140       .   S
C902       C903 1.540       .   A
C903       C263 1.613       .   S
O175       C180 1.250       .   A
O174       C181 1.251       .   A
C753       C754 1.540       .   A
O176       C179 1.250       .   A
O171       C181 1.250       .   A
O170       C180 1.250       .   A
O173       C182 1.250       .   A
O172       C182 1.250       .   A
C819       H825 1.140       .   S
C819       C824 1.540       .   A
C819       C820 1.540       .   A
C714       H718 1.140       .   S
C709       C714 1.540       .   A
C509       H515 1.140       .   S
C654       H658 1.140       .   S
C674       H678 1.140       .   S
C709       H715 1.140       .   S
O60         C70 1.250       .   A
O61         C70 1.250       .   A
C499       C500 1.540       .   A
C499       C504 1.540       .   A
C649       H655 1.140       .   S
C720       C721 1.540       .   A
C721       C722 1.540       .   A
C721       H726 1.140       .   S
Cu93       Cu94 2.630       .   S
O337      Cu345 1.951       .   S
Cu345     Cu346 2.630       .   S
O339      Cu345 1.951       .   S
O338      Cu345 1.951       .   S
O92        Cu94 1.951       .   S
O91        Cu94 1.951       .   S
O90        Cu94 1.951       .   S
Cu261     Cu262 2.630       .   S
C989       H995 1.140       .   S
C350       C993 1.664       .   S
C723       C724 1.540       .   A
C126       C720 1.568       .   S
C994       H998 1.140       .   S
C722       C723 1.540       .   A
C140       C723 1.568       .   S
O288      Cu290 1.951       .   S
O287      Cu290 1.951       .   S
O286      Cu290 1.951       .   S
O285      Cu290 1.951       .   S
C489       C490 1.540       .   A
C27        C490 1.587       .   S
C682       C683 1.540       .   A
C420       C683 1.582       .   S
C683       C684 1.540       .   A
C681       C682 1.540       .   A
C682       H687 1.140       .   S
C680       C681 1.540       .   A
C681       H686 1.140       .   S
C679       C680 1.540       .   A
C749       C754 1.540       .   A
C749       H755 1.140       .   S
C684       H688 1.140       .   S
C679       C684 1.540       .   A
C979       C984 1.540       .   A
C979       C980 1.540       .   A
Cu401     Cu402 2.630       .   S
C530       C531 1.540       .   A
C531       C532 1.540       .   A
C531       H536 1.140       .   S
C529       C530 1.540       .   A
Cu23       Cu24 2.630       .   S
C784       H788 1.140       .   S
C459       C464 1.540       .   A
C459       C460 1.540       .   A
C539       C544 1.540       .   A
C539       C540 1.540       .   A
C679       H685 1.140       .   S
C782       H787 1.140       .   S
C781       H786 1.140       .   S
C779       H785 1.140       .   S
C649       C654 1.540       .   A
C729       C734 1.540       .   A
C729       H735 1.140       .   S
C729       C730 1.540       .   A
O113       C123 1.250       .   A
C432       C733 1.168       .   S
O117       C126 1.250       .   A
O116       C126 1.250       .   A
O119       C124 1.250       .   A
C700       C124 1.627       .   S
O114       C124 1.250       .   A
O118       C125 1.251       .   A
O115       C125 1.250       .   A
C964       H968 1.140       .   S
O328      Cu332 1.951       .   S
O328       C335 1.251       .   A
O329      Cu332 1.951       .   S
O329       C334 1.250       .   A
O324      Cu331 1.951       .   S
O324       C334 1.250       .   A
O325       C335 1.250       .   A
O325      Cu331 1.951       .   S
O326       C336 1.250       .   A
O326      Cu331 1.951       .   S
O327      Cu332 1.951       .   S
O327       C336 1.250       .   A
C1042     H1047 1.140       .   S
O323       C333 1.250       .   A
O323      Cu331 1.951       .   S
O288       C291 1.250       .   A
C912       H917 1.140       .   S
O283       C293 1.250       .   A
O282       C292 1.250       .   A
O281       C291 1.250       .   A
O287       C292 1.250       .   A
O286       C293 1.251       .   A
O285       C294 1.250       .   A
O284       C294 1.250       .   A
C534       H538 1.140       .   S
O90         C97 1.251       .   A
C603        C96 1.591       .   S
O91         C96 1.250       .   A
O92         C95 1.250       .   A
C640        C95 1.256       .   S
C742       H747 1.140       .   S
C529       H535 1.140       .   S
C554       H558 1.140       .   S
C553       C554 1.540       .   A
C549       C554 1.540       .   A
C543       C544 1.540       .   A
O211       C221 1.250       .   A
O212       C222 1.250       .   A
O213       C223 1.250       .   A
O214       C224 1.250       .   A
O215       C224 1.250       .   A
O216       C223 1.251       .   A
O217       C222 1.250       .   A
O218       C221 1.250       .   A
C224       C873 1.643       .   S
O353       C363 1.250       .   A
O352       C362 1.250       .   A
C883       C221 1.139       .   S
O354       C364 1.250       .   A
O131       C140 1.250       .   A
O130       C140 1.250       .   A
O133       C138 1.250       .   A
O132       C139 1.251       .   A
C1024     H1028 1.140       .   S
O134       C137 1.250       .   A
C1049     C1050 1.540       .   A
C1049     H1055 1.140       .   S
C1049     C1054 1.540       .   A
C1019     H1025 1.140       .   S
C1021     H1026 1.140       .   S
C1022     H1027 1.140       .   S
C814       H818 1.140       .   S
C949       H955 1.140       .   S
C949       C954 1.540       .   A
C824       H828 1.140       .   S
C823       C824 1.540       .   A
C193       C823 1.164       .   S
C822       C823 1.540       .   A
C821       H826 1.140       .   S
C821       C822 1.540       .   A
C820       C821 1.540       .   A
C940       C941 1.540       .   A
C940       C266 1.592       .   S
C941       C942 1.540       .   A
Cu163     Cu164 2.630       .   S
O159      Cu164 1.951       .   S
C942       C943 1.540       .   A
C943       C944 1.540       .   A
C406       C943 1.592   1_545   S
O157      Cu163 1.951       .   S
O156      Cu163 1.951       .   S
O155      Cu163 1.951       .   S
O158      Cu163 1.951       .   S
C661       C662 1.540       .   A
C669       C670 1.540       .   A
C669       H675 1.140       .   S
C669       C674 1.540       .   A
C501       H506 1.140       .   S
C921       C922 1.540       .   A
C884       H888 1.140       .   S
C882       H887 1.140       .   S
C1054     H1058 1.140       .   S
O145      Cu150 1.951       .   S
O146      Cu150 1.951       .   S
O147      Cu150 1.951       .   S
C763       C764 1.540       .   A
C480       C481 1.540       .   A
C481       C482 1.540       .   A
Cu303     Cu304 2.630       .   S
C483        C12 1.170       .   S
C482       C483 1.540       .   A
C482       H487 1.140       .   S
O148      Cu150 1.951       .   S
C633       C634 1.540       .   A
C634       H638 1.140       .   S
C319       C953 1.603   1_455   S
C929       H935 1.140       .   S
C53        C550 1.170       .   S
C549       C550 1.540       .   A
C550       C551 1.540       .   A
C632       H637 1.140       .   S
C632       C633 1.540       .   A
C643       C644 1.540       .   A
C644       H648 1.140       .   S
C639       C644 1.540       .   A
C643       C376 1.256   1_456   S
C642       C643 1.540       .   A
C642       H647 1.140       .   S
C641       C642 1.540       .   A
C640       C641 1.540       .   A
C639       C640 1.540       .   A
C463       C464 1.540       .   A
C83        C630 1.635       .   S
C462       C463 1.540       .   A
C1023     C1024 1.540       .   A
C1019     C1024 1.540       .   A
C461       C462 1.540       .   A
C584       H588 1.140       .   S
C661       H666 1.140       .   S
C25        C500 1.191       .   S
C460        C11 1.628       .   S
C460       C461 1.540       .   A
C579       H585 1.140       .   S
C56        C533 1.610       .   S
C532       C533 1.540       .   A
C533       C534 1.540       .   A
C582       H587 1.140       .   S
C581       H586 1.140       .   S
Cu233     Cu234 2.630       .   S
C532       H537 1.140       .   S
C739       H745 1.140       .   S
C529       C534 1.540       .   A
C812       C813 1.540       .   A
C811       C812 1.540       .   A
C763       C168 1.540       .   S
O159       C168 1.250       .   A
O158       C168 1.250       .   A
C813       C196 1.537       .   S
C813       C814 1.540       .   A
O156       C166 1.250       .   A
C166       C703 1.627       .   S
O157       C167 1.250       .   A
C167       C633 1.635   1_655   S
O155       C165 1.250       .   A
C165       C780 1.182       .   S
C959       C964 1.540       .   A
C959       H965 1.140       .   S
C919       C924 1.540       .   A
O355       C364 1.250       .   A
C364      C1013 1.553       .   S
O438      Cu443 1.951       .   S
O351       C361 1.250       .   A
O358       C361 1.250       .   A
C362      C1020 1.614       .   S
O357       C362 1.250       .   A
O356       C363 1.251       .   A
O246      Cu248 1.951       .   S
O245       C250 1.250       .   A
O245      Cu248 1.951       .   S
O244       C251 1.251       .   A
O244      Cu248 1.951       .   S
O243       C252 1.250       .   A
O243      Cu248 1.951       .   S
O242      Cu247 1.951       .   S
O242       C252 1.250       .   A
O241      Cu247 1.951       .   S
O241       C251 1.250       .   A
O240      Cu247 1.951       .   S
O240       C250 1.250       .   A
C952       C953 1.540       .   A
C953       C954 1.540       .   A
O435      Cu443 1.951       .   S
C911       H916 1.140       .   S
C1003      C375 1.580       .   S
C1002     C1003 1.540       .   A
O436      Cu443 1.951       .   S
O436       C446 1.250       .   A
C989       C994 1.540       .   A
C859       H865 1.140       .   S
O74        Cu79 1.951       .   S
O71        Cu79 1.951       .   S
O73        Cu79 1.951       .   S
O72        Cu79 1.951       .   S
C500       C501 1.540       .   A
C501       C502 1.540       .   A
C502       C503 1.540       .   A
C503       C504 1.540       .   A
C469       C474 1.540       .   A
O119      Cu122 1.951       .   S
O118      Cu122 1.951       .   S
O117      Cu122 1.951       .   S
Cu121     Cu122 2.630       .   S
O407       C417 1.250       .   A
O113      Cu121 1.951       .   S
O116      Cu121 1.951       .   S
O115      Cu121 1.951       .   S
O114      Cu121 1.951       .   S
O400       C403 1.250       .   A
O400      Cu402 1.951       .   S
C983       C984 1.540       .   A
C321       C980 1.590       .   S
C980       C981 1.540       .   A
C914       H918 1.140       .   S
O409       C419 1.250       .   A
C982       H987 1.140       .   S
C981       C982 1.540       .   A
C982       C983 1.540       .   A
O408       C418 1.250       .   A
C869       C870 1.540       .   A
C862       C863 1.540       .   A
C863       C378 1.704   1_455   S
C863       C864 1.540       .   A
C862       H867 1.140       .   S
C861       C862 1.540       .   A
C861       H866 1.140       .   S
C860       C861 1.540       .   A
C983       C335 1.590   1_455   S
C864       H868 1.140       .   S
C859       C864 1.540       .   A
C84        C593 1.574       .   S
C559       H565 1.140       .   S
C434       C543 1.568   1_545   S
C799       C804 1.540       .   A
C844       H848 1.140       .   S
C564       H568 1.140       .   S
O201       C210 1.250       .   A
O200       C210 1.250       .   A
C210       C860 1.704       .   S
O78         C81 1.250       .   A
O366      Cu373 1.951       .   S
O366       C376 1.250       .   A
O367      Cu373 1.951       .   S
O367       C377 1.250       .   A
O75         C84 1.250       .   A
O74         C84 1.250       .   A
O77         C82 1.250       .   A
O76         C83 1.251       .   A
O71         C81 1.250       .   A
O73         C83 1.250       .   A
O72         C82 1.250       .   A
C1012     H1017 1.140       .   S
C1011     H1016 1.140       .   S
C1014     H1018 1.140       .   S
C602       C603 1.540       .   A
C603       C604 1.540       .   A
C601       C602 1.540       .   A
C602       H607 1.140       .   S
C600       C601 1.540       .   A
C601       H606 1.140       .   S
C913       C914 1.540       .   A
C912       C913 1.540       .   A
O188      Cu192 1.951       .   S
O189      Cu192 1.951       .   S
Cu191     Cu192 2.630       .   S
O187      Cu192 1.951       .   S
O183      Cu191 1.951       .   S
O184      Cu191 1.951       .   S
O185      Cu191 1.951       .   S
O186      Cu191 1.951       .   S
C1019     C1020 1.540       .   A
O106       C109 1.250       .   A
C1011     C1012 1.540       .   A
C1010     C1011 1.540       .   A
C859       C860 1.540       .   A
C734       H738 1.140       .   S
C582       C583 1.540       .   A
C583       C584 1.540       .   A
C1059     H1065 1.140       .   S
C999      C1000 1.540       .   A
C702       H707 1.140       .   S
C701       H706 1.140       .   S
C68        C600 1.591       .   S
O63         C68 1.250       .   A
O62         C69 1.251       .   A
C67        C580 1.160       .   S
O64         C67 1.250       .   A
C704       H708 1.140       .   S
O368      Cu373 1.951       .   S
Cu373     Cu374 2.630       .   S
O365      Cu373 1.951       .   S
O369      Cu374 1.951       .   S
O371      Cu374 1.951       .   S
O370      Cu374 1.951       .   S
O372      Cu374 1.951       .   S
O272      Cu276 1.951       .   S
O273      Cu276 1.951       .   S
O271      Cu276 1.951       .   S
O274      Cu276 1.951       .   S
Cu275     Cu276 2.630       .   S
O270      Cu275 1.951       .   S
O314       C321 1.251       .   A
C733       C734 1.540       .   A
C732       C733 1.540       .   A
C732       H737 1.140       .   S
C731       C732 1.540       .   A
C731       H736 1.140       .   S
C730       C731 1.540       .   A
C137       C730 1.168       .   S
C1002     H1007 1.140       .   S
C952       H957 1.140       .   S
C891       H896 1.140       .   S
C81        C610 1.207       .   S
O6          C13 1.251       .   A
C450        C13 1.558       .   S
O3          C13 1.250       .   A
O7          C12 1.250       .   A
O2          C12 1.250       .   A
O1          C11 1.250       .   A
O8          C11 1.250       .   A
O5          C14 1.250       .   A
O4          C14 1.250       .   A
O437      Cu443 1.951       .   S
O31        Cu37 1.951       .   S
O30        Cu37 1.951       .   S
O32        Cu37 1.951       .   S
Cu37       Cu38 2.630       .   S
O33        Cu38 1.951       .   S
O35        Cu38 1.951       .   S
O34        Cu38 1.951       .   S
O36        Cu38 1.951       .   S
C870       C871 1.540       .   A
C870       C209 1.643       .   S
C55        C560 1.688       .   S
C559       C560 1.540       .   A
C139       C473 1.607   1_645   S
C782       C783 1.540       .   A
C781       C782 1.540       .   A
C418       C783 1.182       .   S
C783       C784 1.540       .   A
C779       C780 1.540       .   A
C780       C781 1.540       .   A
C779       C784 1.540       .   A
O365       C375 1.250       .   A
O330       C333 1.250       .   A
O330      Cu332 1.951       .   S
O368       C378 1.250       .   A
O369       C378 1.250       .   A
O203      Cu206 1.951       .   S
O203       C208 1.250       .   A
O202      Cu206 1.951       .   S
O202       C209 1.251       .   A
O201      Cu206 1.951       .   S
O200      Cu205 1.951       .   S
C552       C553 1.540       .   A
C552       H557 1.140       .   S
C551       C552 1.540       .   A
C551       H556 1.140       .   S
O204       C207 1.250       .   A
O204      Cu206 1.951       .   S
C251       C910 1.597       .   S
C559       C564 1.540       .   A
C1052     C1053 1.540       .   A
C1051     C1052 1.540       .   A
C1052     H1057 1.140       .   S
C1053     C1054 1.540       .   A
C419      C1053 1.548   1_655   S
C1050     C1051 1.540       .   A
C1051     H1056 1.140       .   S
C822       H827 1.140       .   S
O382      Cu387 1.951       .   S
O383      Cu388 1.951       .   S
O380      Cu387 1.951       .   S
O381      Cu387 1.951       .   S
O386      Cu388 1.951       .   S
O386       C389 1.250       .   A
O384      Cu388 1.951       .   S
O4          Cu9 1.951       .   S
O3          Cu9 1.951       .   S
O2          Cu9 1.951       .   S
O1          Cu9 1.951       .   S
C954       H958 1.140       .   S
C452       H457 1.140       .   S
C451       H456 1.140       .   S
O358      Cu360 1.951       .   S
C454       H458 1.140       .   S
C999      H1005 1.140       .   S
C540       C541 1.540       .   A
C541       C542 1.540       .   A
Cu331     Cu332 2.630       .   S
C542       C543 1.540       .   A
C450       C451 1.540       .   A
C789       C794 1.540       .   A
C789       C790 1.540       .   A
C672       C673 1.540       .   A
C671       C672 1.540       .   A
C672       H677 1.140       .   S
O355      Cu360 1.951       .   S
C670       C671 1.540       .   A
C109       C670 1.140       .   S
C671       H676 1.140       .   S
C673       C674 1.540       .   A
C549       H555 1.140       .   S
O357      Cu360 1.951       .   S
C389       C673 1.140   1_554   S
Cu387     Cu388 2.630       .   S
O356      Cu360 1.951       .   S
C911       C912 1.540       .   A
C513        C54 1.641       .   S
C910       C911 1.540       .   A
C969       C970 1.540       .   A
C1042     C1043 1.540       .   A
C1043     C1044 1.540       .   A
C580       C581 1.540       .   A
C579       C580 1.540       .   A
C581       C582 1.540       .   A
C579       C584 1.540       .   A
Cu205     Cu206 2.630       .   S
C1013     C1014 1.540       .   A
C179       C790 1.244       .   S
C473       C474 1.540       .   A
C1012     C1013 1.540       .   A
C850       C208 1.223       .   S
O370       C377 1.251       .   A
O371       C376 1.250       .   A
O372       C375 1.250       .   A
O379      Cu387 1.951       .   S
O186       C196 1.250       .   A
O187       C196 1.250       .   A
O188       C195 1.251       .   A
O185       C195 1.250       .   A
O189       C194 1.250       .   A
O184       C194 1.250       .   A
O183       C193 1.250       .   A
C521       H526 1.140       .   S
C604       H608 1.140       .   S
C571       C572 1.540       .   A
C292       C793 1.244       .   S
C451       C452 1.540       .   A
O99        C109 1.250       .   A
C512       C513 1.540       .   A
C511       C512 1.540       .   A
C922       H927 1.140       .   S
C854       H858 1.140       .   S
C992       C993 1.540       .   A
C992       H997 1.140       .   S
C970       C333 1.639   1_455   S
C993       C994 1.540       .   A
C883       C884 1.540       .   A
C792       H797 1.140       .   S
O379       C389 1.250       .   A
C922       C923 1.540       .   A
C923       C924 1.540       .   A
C1022     C1023 1.540       .   A
C1021     C1022 1.540       .   A
C1020     C1021 1.540       .   A
Cu247     Cu248 2.630       .   S
C880       C334 1.139       .   S
C871       C872 1.540       .   A
C872       C873 1.540       .   A
C702       C703 1.540       .   A
C701       C702 1.540       .   A
C703       C704 1.540       .   A
C700       C701 1.540       .   A
C882       C883 1.540       .   A
C793       C794 1.540       .   A
C791       C792 1.540       .   A
C792       C793 1.540       .   A
C790       C791 1.540       .   A
